version 2
run omnetpp10-0-20141121-11:39:31-6688
attr configname omnetpp10
attr datetime 20141121-11:39:31
attr experiment omnetpp10
attr inifile omnetpp10.ini
attr iterationvars ""
attr iterationvars2 $repetition=0
attr measurement ""
attr network manet.MANET
attr processid 6688
attr repetition 0
attr replication #0
attr resultdir results
attr runnumber 0
attr seedset 0

scalar MANET.node[0].udp 	droppedPkBadChecksum:count 	0
attr interpolationmode  none
attr title  "packets dropped (checksum error), count"
scalar MANET.node[0].udp 	droppedPkWrongPort:count 	0
attr interpolationmode  none
attr title  "packets dropped (wrong port), count"
scalar MANET.node[0].udp 	passedUpPk:count 	0
attr interpolationmode  none
attr title  "packets passed up, count"
scalar MANET.node[0].udp 	rcvdPk:count 	0
attr interpolationmode  none
attr source  rcvdPk
attr title  "packets received, count"
scalar MANET.node[0].udp 	rcvdPk:sum(packetBytes) 	0
attr interpolationmode  none
attr source  rcvdPk
attr title  "packets received, sum(packetBytes)"
scalar MANET.node[0].udp 	sentPk:count 	0
attr interpolationmode  none
attr source  sentPk
attr title  "packets sent, count"
scalar MANET.node[0].udp 	sentPk:sum(packetBytes) 	0
attr interpolationmode  none
attr source  sentPk
attr title  "packets sent, sum(packetBytes)"
scalar MANET.node[0].networkLayer.arp 	failedResolution:count 	0
attr title  "ARP failed resolutions, count"
scalar MANET.node[0].networkLayer.arp 	initiatedResolution:count 	0
attr title  "ARP initiated resolutions, count"
scalar MANET.node[0].networkLayer.arp 	sentReplies:count 	0
attr title  "ARP replies sent, count"
scalar MANET.node[0].networkLayer.arp 	sentReq:count 	0
attr title  "ARP request sent, count"
scalar MANET.node[0].nic802154.mac 	nbTxFrames 	1309
scalar MANET.node[0].nic802154.mac 	nbRxFrames 	1934
scalar MANET.node[0].nic802154.mac 	nbDroppedFrames 	0
scalar MANET.node[0].nic802154.mac 	nbMissedAcks 	0
scalar MANET.node[0].nic802154.mac 	nbRecvdAcks 	0
scalar MANET.node[0].nic802154.mac 	nbTxAcks 	0
scalar MANET.node[0].nic802154.mac 	nbDuplicates 	0
scalar MANET.node[0].nic802154.mac 	meanBackoff 	0.0097937356760885
scalar MANET.node[0].nic802154.mac 	nbBackoffs 	1309
scalar MANET.node[0].nic802154.mac 	backoffDurations 	12.82
scalar MANET.node[0].nic802154.phy 	nbFramesWithInterference 	349
scalar MANET.node[0].nic802154.phy 	nbFramesWithoutInterference 	2325
scalar MANET.node[0].nic802154.phy 	nbFramesWithInterferencePartial 	75
scalar MANET.node[0].nic802154.phy 	nbFramesWithoutInterferencePartial 	0
scalar MANET.node[0].nic802154.phy 	nbFramesWithInterferenceDropped 	293
scalar MANET.node[0].nic802154.phy 	nbFramesWithoutInterferenceDropped 	0
scalar MANET.node[0].eth.mac 	"simulated time" 	481
scalar MANET.node[0].eth.mac 	full-duplex 	1
scalar MANET.node[0].eth.mac 	"frames/sec sent" 	0
scalar MANET.node[0].eth.mac 	"frames/sec rcvd" 	0
scalar MANET.node[0].eth.mac 	"bits/sec sent" 	0
scalar MANET.node[0].eth.mac 	"bits/sec rcvd" 	0
scalar MANET.node[0].eth.mac 	"rx channel idle (%)" 	100
scalar MANET.node[0].eth.mac 	"rx channel utilization (%)" 	0
scalar MANET.node[0].eth.mac 	droppedPkNotForUs:count 	0
attr interpolationmode  none
attr source  dropPkNotForUs
attr title  "packets dropped/not for us, count"
scalar MANET.node[0].eth.mac 	droppedPkNotForUs:sum(packetBytes) 	0
attr interpolationmode  none
attr source  dropPkNotForUs
attr title  "packets dropped/not for us, sum(packetBytes)"
scalar MANET.node[0].eth.mac 	droppedPkBitError:count 	0
attr interpolationmode  none
attr source  dropPkBitError
attr title  "packets dropped/bit error, count"
scalar MANET.node[0].eth.mac 	droppedPkBitError:sum(packetBytes) 	0
attr interpolationmode  none
attr source  dropPkBitError
attr title  "packets dropped/bit error, sum(packetBytes)"
scalar MANET.node[0].eth.mac 	droppedPkIfaceDown:count 	0
attr interpolationmode  none
attr source  dropPkIfaceDown
attr title  "packets dropped/interface down, count"
scalar MANET.node[0].eth.mac 	droppedPkIfaceDown:sum(packetBytes) 	0
attr interpolationmode  none
attr source  dropPkIfaceDown
attr title  "packets dropped/interface down, sum(packetBytes)"
scalar MANET.node[0].eth.mac 	rxPkFromHL:count 	0
attr interpolationmode  none
attr source  rxPkFromHL
attr title  "packet bytes from higher layer, count"
scalar MANET.node[0].eth.mac 	rxPkFromHL:sum(packetBytes) 	0
attr interpolationmode  none
attr source  rxPkFromHL
attr title  "packet bytes from higher layer, sum(packetBytes)"
scalar MANET.node[0].eth.mac 	rxPausePkUnits:count 	0
attr interpolationmode  none
attr title  "pause units received, count"
scalar MANET.node[0].eth.mac 	rxPausePkUnits:sum 	0
attr interpolationmode  none
attr title  "pause units received, sum"
scalar MANET.node[0].eth.mac 	txPausePkUnits:count 	0
attr interpolationmode  none
attr title  "pause units sent, count"
scalar MANET.node[0].eth.mac 	txPausePkUnits:sum 	0
attr interpolationmode  none
attr title  "pause units sent, sum"
scalar MANET.node[0].eth.mac 	passedUpPk:count 	0
attr interpolationmode  none
attr source  packetSentToUpper
attr title  "packets passed to higher layer, count"
scalar MANET.node[0].eth.mac 	passedUpPk:sum(packetBytes) 	0
attr interpolationmode  none
attr source  packetSentToUpper
attr title  "packets passed to higher layer, sum(packetBytes)"
scalar MANET.node[0].eth.mac 	rxPkOk:count 	0
attr interpolationmode  none
attr source  rxPkOk
attr title  "packets received OK, count"
scalar MANET.node[0].eth.mac 	rxPkOk:sum(packetBytes) 	0
attr interpolationmode  none
attr source  rxPkOk
attr title  "packets received OK, sum(packetBytes)"
scalar MANET.node[0].eth.mac 	txPk:count 	0
attr interpolationmode  none
attr source  txPk
attr title  "packets transmitted, count"
scalar MANET.node[0].eth.mac 	txPk:sum(packetBytes) 	0
attr interpolationmode  none
attr source  txPk
attr title  "packets transmitted, sum(packetBytes)"
scalar MANET.node[0].eth.encap 	pauseSent:count 	0
attr title  "pause sent, count"
scalar MANET.node[0].eth.encap 	pauseSent:sum 	0
attr title  "pause sent, sum"
scalar MANET.node[0].eth.encap 	decapPk:count 	0
attr interpolationmode  none
attr source  decapPk
attr title  "packets decapsulated, count"
scalar MANET.node[0].eth.encap 	decapPk:sum(packetBytes) 	0
attr interpolationmode  none
attr source  decapPk
attr title  "packets decapsulated, sum(packetBytes)"
scalar MANET.node[0].eth.encap 	encapPk:count 	0
attr interpolationmode  none
attr source  encapPk
attr title  "packets encapsulated, count"
scalar MANET.node[0].eth.encap 	encapPk:sum(packetBytes) 	0
attr interpolationmode  none
attr source  encapPk
attr title  "packets encapsulated, sum(packetBytes)"
scalar MANET.node[0].batteryStats 	nominal 	1187988120
attr unit  mW-s
scalar MANET.node[0].batteryStats 	total 	29813.566136122
attr unit  mW-s
scalar MANET.node[0].batteryStats 	lifetime 	-1
attr unit  s
scalar MANET.node[0].batteryStats 	"Mean power consumption" 	61.982465979463
attr unit  mW
scalar MANET.node[1].udp 	droppedPkBadChecksum:count 	0
attr interpolationmode  none
attr title  "packets dropped (checksum error), count"
scalar MANET.node[1].udp 	droppedPkWrongPort:count 	0
attr interpolationmode  none
attr title  "packets dropped (wrong port), count"
scalar MANET.node[1].udp 	passedUpPk:count 	0
attr interpolationmode  none
attr title  "packets passed up, count"
scalar MANET.node[1].udp 	rcvdPk:count 	0
attr interpolationmode  none
attr source  rcvdPk
attr title  "packets received, count"
scalar MANET.node[1].udp 	rcvdPk:sum(packetBytes) 	0
attr interpolationmode  none
attr source  rcvdPk
attr title  "packets received, sum(packetBytes)"
scalar MANET.node[1].udp 	sentPk:count 	0
attr interpolationmode  none
attr source  sentPk
attr title  "packets sent, count"
scalar MANET.node[1].udp 	sentPk:sum(packetBytes) 	0
attr interpolationmode  none
attr source  sentPk
attr title  "packets sent, sum(packetBytes)"
scalar MANET.node[1].networkLayer.arp 	failedResolution:count 	0
attr title  "ARP failed resolutions, count"
scalar MANET.node[1].networkLayer.arp 	initiatedResolution:count 	0
attr title  "ARP initiated resolutions, count"
scalar MANET.node[1].networkLayer.arp 	sentReplies:count 	0
attr title  "ARP replies sent, count"
scalar MANET.node[1].networkLayer.arp 	sentReq:count 	0
attr title  "ARP request sent, count"
scalar MANET.node[1].nic802154.mac 	nbTxFrames 	1463
scalar MANET.node[1].nic802154.mac 	nbRxFrames 	2181
scalar MANET.node[1].nic802154.mac 	nbDroppedFrames 	0
scalar MANET.node[1].nic802154.mac 	nbMissedAcks 	0
scalar MANET.node[1].nic802154.mac 	nbRecvdAcks 	0
scalar MANET.node[1].nic802154.mac 	nbTxAcks 	0
scalar MANET.node[1].nic802154.mac 	nbDuplicates 	0
scalar MANET.node[1].nic802154.mac 	meanBackoff 	0.010395634379263
scalar MANET.node[1].nic802154.mac 	nbBackoffs 	1466
scalar MANET.node[1].nic802154.mac 	backoffDurations 	15.24
scalar MANET.node[1].nic802154.phy 	nbFramesWithInterference 	302
scalar MANET.node[1].nic802154.phy 	nbFramesWithoutInterference 	2917
scalar MANET.node[1].nic802154.phy 	nbFramesWithInterferencePartial 	214
scalar MANET.node[1].nic802154.phy 	nbFramesWithoutInterferencePartial 	0
scalar MANET.node[1].nic802154.phy 	nbFramesWithInterferenceDropped 	135
scalar MANET.node[1].nic802154.phy 	nbFramesWithoutInterferenceDropped 	0
scalar MANET.node[1].eth.mac 	"simulated time" 	481
scalar MANET.node[1].eth.mac 	full-duplex 	1
scalar MANET.node[1].eth.mac 	"frames/sec sent" 	0
scalar MANET.node[1].eth.mac 	"frames/sec rcvd" 	0
scalar MANET.node[1].eth.mac 	"bits/sec sent" 	0
scalar MANET.node[1].eth.mac 	"bits/sec rcvd" 	0
scalar MANET.node[1].eth.mac 	"rx channel idle (%)" 	100
scalar MANET.node[1].eth.mac 	"rx channel utilization (%)" 	0
scalar MANET.node[1].eth.mac 	droppedPkNotForUs:count 	0
attr interpolationmode  none
attr source  dropPkNotForUs
attr title  "packets dropped/not for us, count"
scalar MANET.node[1].eth.mac 	droppedPkNotForUs:sum(packetBytes) 	0
attr interpolationmode  none
attr source  dropPkNotForUs
attr title  "packets dropped/not for us, sum(packetBytes)"
scalar MANET.node[1].eth.mac 	droppedPkBitError:count 	0
attr interpolationmode  none
attr source  dropPkBitError
attr title  "packets dropped/bit error, count"
scalar MANET.node[1].eth.mac 	droppedPkBitError:sum(packetBytes) 	0
attr interpolationmode  none
attr source  dropPkBitError
attr title  "packets dropped/bit error, sum(packetBytes)"
scalar MANET.node[1].eth.mac 	droppedPkIfaceDown:count 	0
attr interpolationmode  none
attr source  dropPkIfaceDown
attr title  "packets dropped/interface down, count"
scalar MANET.node[1].eth.mac 	droppedPkIfaceDown:sum(packetBytes) 	0
attr interpolationmode  none
attr source  dropPkIfaceDown
attr title  "packets dropped/interface down, sum(packetBytes)"
scalar MANET.node[1].eth.mac 	rxPkFromHL:count 	0
attr interpolationmode  none
attr source  rxPkFromHL
attr title  "packet bytes from higher layer, count"
scalar MANET.node[1].eth.mac 	rxPkFromHL:sum(packetBytes) 	0
attr interpolationmode  none
attr source  rxPkFromHL
attr title  "packet bytes from higher layer, sum(packetBytes)"
scalar MANET.node[1].eth.mac 	rxPausePkUnits:count 	0
attr interpolationmode  none
attr title  "pause units received, count"
scalar MANET.node[1].eth.mac 	rxPausePkUnits:sum 	0
attr interpolationmode  none
attr title  "pause units received, sum"
scalar MANET.node[1].eth.mac 	txPausePkUnits:count 	0
attr interpolationmode  none
attr title  "pause units sent, count"
scalar MANET.node[1].eth.mac 	txPausePkUnits:sum 	0
attr interpolationmode  none
attr title  "pause units sent, sum"
scalar MANET.node[1].eth.mac 	passedUpPk:count 	0
attr interpolationmode  none
attr source  packetSentToUpper
attr title  "packets passed to higher layer, count"
scalar MANET.node[1].eth.mac 	passedUpPk:sum(packetBytes) 	0
attr interpolationmode  none
attr source  packetSentToUpper
attr title  "packets passed to higher layer, sum(packetBytes)"
scalar MANET.node[1].eth.mac 	rxPkOk:count 	0
attr interpolationmode  none
attr source  rxPkOk
attr title  "packets received OK, count"
scalar MANET.node[1].eth.mac 	rxPkOk:sum(packetBytes) 	0
attr interpolationmode  none
attr source  rxPkOk
attr title  "packets received OK, sum(packetBytes)"
scalar MANET.node[1].eth.mac 	txPk:count 	0
attr interpolationmode  none
attr source  txPk
attr title  "packets transmitted, count"
scalar MANET.node[1].eth.mac 	txPk:sum(packetBytes) 	0
attr interpolationmode  none
attr source  txPk
attr title  "packets transmitted, sum(packetBytes)"
scalar MANET.node[1].eth.encap 	pauseSent:count 	0
attr title  "pause sent, count"
scalar MANET.node[1].eth.encap 	pauseSent:sum 	0
attr title  "pause sent, sum"
scalar MANET.node[1].eth.encap 	decapPk:count 	0
attr interpolationmode  none
attr source  decapPk
attr title  "packets decapsulated, count"
scalar MANET.node[1].eth.encap 	decapPk:sum(packetBytes) 	0
attr interpolationmode  none
attr source  decapPk
attr title  "packets decapsulated, sum(packetBytes)"
scalar MANET.node[1].eth.encap 	encapPk:count 	0
attr interpolationmode  none
attr source  encapPk
attr title  "packets encapsulated, count"
scalar MANET.node[1].eth.encap 	encapPk:sum(packetBytes) 	0
attr interpolationmode  none
attr source  encapPk
attr title  "packets encapsulated, sum(packetBytes)"
scalar MANET.node[1].batteryStats 	nominal 	1187988120
attr unit  mW-s
scalar MANET.node[1].batteryStats 	total 	29810.310454607
attr unit  mW-s
scalar MANET.node[1].batteryStats 	lifetime 	-1
attr unit  s
scalar MANET.node[1].batteryStats 	"Mean power consumption" 	61.975697410825
attr unit  mW
scalar MANET.node[2].udp 	droppedPkBadChecksum:count 	0
attr interpolationmode  none
attr title  "packets dropped (checksum error), count"
scalar MANET.node[2].udp 	droppedPkWrongPort:count 	0
attr interpolationmode  none
attr title  "packets dropped (wrong port), count"
scalar MANET.node[2].udp 	passedUpPk:count 	0
attr interpolationmode  none
attr title  "packets passed up, count"
scalar MANET.node[2].udp 	rcvdPk:count 	0
attr interpolationmode  none
attr source  rcvdPk
attr title  "packets received, count"
scalar MANET.node[2].udp 	rcvdPk:sum(packetBytes) 	0
attr interpolationmode  none
attr source  rcvdPk
attr title  "packets received, sum(packetBytes)"
scalar MANET.node[2].udp 	sentPk:count 	0
attr interpolationmode  none
attr source  sentPk
attr title  "packets sent, count"
scalar MANET.node[2].udp 	sentPk:sum(packetBytes) 	0
attr interpolationmode  none
attr source  sentPk
attr title  "packets sent, sum(packetBytes)"
scalar MANET.node[2].networkLayer.arp 	failedResolution:count 	0
attr title  "ARP failed resolutions, count"
scalar MANET.node[2].networkLayer.arp 	initiatedResolution:count 	0
attr title  "ARP initiated resolutions, count"
scalar MANET.node[2].networkLayer.arp 	sentReplies:count 	0
attr title  "ARP replies sent, count"
scalar MANET.node[2].networkLayer.arp 	sentReq:count 	0
attr title  "ARP request sent, count"
scalar MANET.node[2].nic802154.mac 	nbTxFrames 	1462
scalar MANET.node[2].nic802154.mac 	nbRxFrames 	2185
scalar MANET.node[2].nic802154.mac 	nbDroppedFrames 	0
scalar MANET.node[2].nic802154.mac 	nbMissedAcks 	0
scalar MANET.node[2].nic802154.mac 	nbRecvdAcks 	0
scalar MANET.node[2].nic802154.mac 	nbTxAcks 	0
scalar MANET.node[2].nic802154.mac 	nbDuplicates 	0
scalar MANET.node[2].nic802154.mac 	meanBackoff 	0.010177595628415
scalar MANET.node[2].nic802154.mac 	nbBackoffs 	1464
scalar MANET.node[2].nic802154.mac 	backoffDurations 	14.9
scalar MANET.node[2].nic802154.phy 	nbFramesWithInterference 	231
scalar MANET.node[2].nic802154.phy 	nbFramesWithoutInterference 	2905
scalar MANET.node[2].nic802154.phy 	nbFramesWithInterferencePartial 	269
scalar MANET.node[2].nic802154.phy 	nbFramesWithoutInterferencePartial 	0
scalar MANET.node[2].nic802154.phy 	nbFramesWithInterferenceDropped 	164
scalar MANET.node[2].nic802154.phy 	nbFramesWithoutInterferenceDropped 	0
scalar MANET.node[2].eth.mac 	"simulated time" 	481
scalar MANET.node[2].eth.mac 	full-duplex 	1
scalar MANET.node[2].eth.mac 	"frames/sec sent" 	0
scalar MANET.node[2].eth.mac 	"frames/sec rcvd" 	0
scalar MANET.node[2].eth.mac 	"bits/sec sent" 	0
scalar MANET.node[2].eth.mac 	"bits/sec rcvd" 	0
scalar MANET.node[2].eth.mac 	"rx channel idle (%)" 	100
scalar MANET.node[2].eth.mac 	"rx channel utilization (%)" 	0
scalar MANET.node[2].eth.mac 	droppedPkNotForUs:count 	0
attr interpolationmode  none
attr source  dropPkNotForUs
attr title  "packets dropped/not for us, count"
scalar MANET.node[2].eth.mac 	droppedPkNotForUs:sum(packetBytes) 	0
attr interpolationmode  none
attr source  dropPkNotForUs
attr title  "packets dropped/not for us, sum(packetBytes)"
scalar MANET.node[2].eth.mac 	droppedPkBitError:count 	0
attr interpolationmode  none
attr source  dropPkBitError
attr title  "packets dropped/bit error, count"
scalar MANET.node[2].eth.mac 	droppedPkBitError:sum(packetBytes) 	0
attr interpolationmode  none
attr source  dropPkBitError
attr title  "packets dropped/bit error, sum(packetBytes)"
scalar MANET.node[2].eth.mac 	droppedPkIfaceDown:count 	0
attr interpolationmode  none
attr source  dropPkIfaceDown
attr title  "packets dropped/interface down, count"
scalar MANET.node[2].eth.mac 	droppedPkIfaceDown:sum(packetBytes) 	0
attr interpolationmode  none
attr source  dropPkIfaceDown
attr title  "packets dropped/interface down, sum(packetBytes)"
scalar MANET.node[2].eth.mac 	rxPkFromHL:count 	0
attr interpolationmode  none
attr source  rxPkFromHL
attr title  "packet bytes from higher layer, count"
scalar MANET.node[2].eth.mac 	rxPkFromHL:sum(packetBytes) 	0
attr interpolationmode  none
attr source  rxPkFromHL
attr title  "packet bytes from higher layer, sum(packetBytes)"
scalar MANET.node[2].eth.mac 	rxPausePkUnits:count 	0
attr interpolationmode  none
attr title  "pause units received, count"
scalar MANET.node[2].eth.mac 	rxPausePkUnits:sum 	0
attr interpolationmode  none
attr title  "pause units received, sum"
scalar MANET.node[2].eth.mac 	txPausePkUnits:count 	0
attr interpolationmode  none
attr title  "pause units sent, count"
scalar MANET.node[2].eth.mac 	txPausePkUnits:sum 	0
attr interpolationmode  none
attr title  "pause units sent, sum"
scalar MANET.node[2].eth.mac 	passedUpPk:count 	0
attr interpolationmode  none
attr source  packetSentToUpper
attr title  "packets passed to higher layer, count"
scalar MANET.node[2].eth.mac 	passedUpPk:sum(packetBytes) 	0
attr interpolationmode  none
attr source  packetSentToUpper
attr title  "packets passed to higher layer, sum(packetBytes)"
scalar MANET.node[2].eth.mac 	rxPkOk:count 	0
attr interpolationmode  none
attr source  rxPkOk
attr title  "packets received OK, count"
scalar MANET.node[2].eth.mac 	rxPkOk:sum(packetBytes) 	0
attr interpolationmode  none
attr source  rxPkOk
attr title  "packets received OK, sum(packetBytes)"
scalar MANET.node[2].eth.mac 	txPk:count 	0
attr interpolationmode  none
attr source  txPk
attr title  "packets transmitted, count"
scalar MANET.node[2].eth.mac 	txPk:sum(packetBytes) 	0
attr interpolationmode  none
attr source  txPk
attr title  "packets transmitted, sum(packetBytes)"
scalar MANET.node[2].eth.encap 	pauseSent:count 	0
attr title  "pause sent, count"
scalar MANET.node[2].eth.encap 	pauseSent:sum 	0
attr title  "pause sent, sum"
scalar MANET.node[2].eth.encap 	decapPk:count 	0
attr interpolationmode  none
attr source  decapPk
attr title  "packets decapsulated, count"
scalar MANET.node[2].eth.encap 	decapPk:sum(packetBytes) 	0
attr interpolationmode  none
attr source  decapPk
attr title  "packets decapsulated, sum(packetBytes)"
scalar MANET.node[2].eth.encap 	encapPk:count 	0
attr interpolationmode  none
attr source  encapPk
attr title  "packets encapsulated, count"
scalar MANET.node[2].eth.encap 	encapPk:sum(packetBytes) 	0
attr interpolationmode  none
attr source  encapPk
attr title  "packets encapsulated, sum(packetBytes)"
scalar MANET.node[2].batteryStats 	nominal 	1187988120
attr unit  mW-s
scalar MANET.node[2].batteryStats 	total 	29810.331573248
attr unit  mW-s
scalar MANET.node[2].batteryStats 	lifetime 	-1
attr unit  s
scalar MANET.node[2].batteryStats 	"Mean power consumption" 	61.975741316524
attr unit  mW
scalar MANET.node[3].udp 	droppedPkBadChecksum:count 	0
attr interpolationmode  none
attr title  "packets dropped (checksum error), count"
scalar MANET.node[3].udp 	droppedPkWrongPort:count 	0
attr interpolationmode  none
attr title  "packets dropped (wrong port), count"
scalar MANET.node[3].udp 	passedUpPk:count 	0
attr interpolationmode  none
attr title  "packets passed up, count"
scalar MANET.node[3].udp 	rcvdPk:count 	0
attr interpolationmode  none
attr source  rcvdPk
attr title  "packets received, count"
scalar MANET.node[3].udp 	rcvdPk:sum(packetBytes) 	0
attr interpolationmode  none
attr source  rcvdPk
attr title  "packets received, sum(packetBytes)"
scalar MANET.node[3].udp 	sentPk:count 	0
attr interpolationmode  none
attr source  sentPk
attr title  "packets sent, count"
scalar MANET.node[3].udp 	sentPk:sum(packetBytes) 	0
attr interpolationmode  none
attr source  sentPk
attr title  "packets sent, sum(packetBytes)"
scalar MANET.node[3].networkLayer.arp 	failedResolution:count 	0
attr title  "ARP failed resolutions, count"
scalar MANET.node[3].networkLayer.arp 	initiatedResolution:count 	0
attr title  "ARP initiated resolutions, count"
scalar MANET.node[3].networkLayer.arp 	sentReplies:count 	0
attr title  "ARP replies sent, count"
scalar MANET.node[3].networkLayer.arp 	sentReq:count 	0
attr title  "ARP request sent, count"
scalar MANET.node[3].nic802154.mac 	nbTxFrames 	1255
scalar MANET.node[3].nic802154.mac 	nbRxFrames 	1958
scalar MANET.node[3].nic802154.mac 	nbDroppedFrames 	0
scalar MANET.node[3].nic802154.mac 	nbMissedAcks 	0
scalar MANET.node[3].nic802154.mac 	nbRecvdAcks 	0
scalar MANET.node[3].nic802154.mac 	nbTxAcks 	0
scalar MANET.node[3].nic802154.mac 	nbDuplicates 	0
scalar MANET.node[3].nic802154.mac 	meanBackoff 	0.0103025477707
scalar MANET.node[3].nic802154.mac 	nbBackoffs 	1256
scalar MANET.node[3].nic802154.mac 	backoffDurations 	12.94
scalar MANET.node[3].nic802154.phy 	nbFramesWithInterference 	474
scalar MANET.node[3].nic802154.phy 	nbFramesWithoutInterference 	2235
scalar MANET.node[3].nic802154.phy 	nbFramesWithInterferencePartial 	37
scalar MANET.node[3].nic802154.phy 	nbFramesWithoutInterferencePartial 	0
scalar MANET.node[3].nic802154.phy 	nbFramesWithInterferenceDropped 	288
scalar MANET.node[3].nic802154.phy 	nbFramesWithoutInterferenceDropped 	0
scalar MANET.node[3].eth.mac 	"simulated time" 	481
scalar MANET.node[3].eth.mac 	full-duplex 	1
scalar MANET.node[3].eth.mac 	"frames/sec sent" 	0
scalar MANET.node[3].eth.mac 	"frames/sec rcvd" 	0
scalar MANET.node[3].eth.mac 	"bits/sec sent" 	0
scalar MANET.node[3].eth.mac 	"bits/sec rcvd" 	0
scalar MANET.node[3].eth.mac 	"rx channel idle (%)" 	100
scalar MANET.node[3].eth.mac 	"rx channel utilization (%)" 	0
scalar MANET.node[3].eth.mac 	droppedPkNotForUs:count 	0
attr interpolationmode  none
attr source  dropPkNotForUs
attr title  "packets dropped/not for us, count"
scalar MANET.node[3].eth.mac 	droppedPkNotForUs:sum(packetBytes) 	0
attr interpolationmode  none
attr source  dropPkNotForUs
attr title  "packets dropped/not for us, sum(packetBytes)"
scalar MANET.node[3].eth.mac 	droppedPkBitError:count 	0
attr interpolationmode  none
attr source  dropPkBitError
attr title  "packets dropped/bit error, count"
scalar MANET.node[3].eth.mac 	droppedPkBitError:sum(packetBytes) 	0
attr interpolationmode  none
attr source  dropPkBitError
attr title  "packets dropped/bit error, sum(packetBytes)"
scalar MANET.node[3].eth.mac 	droppedPkIfaceDown:count 	0
attr interpolationmode  none
attr source  dropPkIfaceDown
attr title  "packets dropped/interface down, count"
scalar MANET.node[3].eth.mac 	droppedPkIfaceDown:sum(packetBytes) 	0
attr interpolationmode  none
attr source  dropPkIfaceDown
attr title  "packets dropped/interface down, sum(packetBytes)"
scalar MANET.node[3].eth.mac 	rxPkFromHL:count 	0
attr interpolationmode  none
attr source  rxPkFromHL
attr title  "packet bytes from higher layer, count"
scalar MANET.node[3].eth.mac 	rxPkFromHL:sum(packetBytes) 	0
attr interpolationmode  none
attr source  rxPkFromHL
attr title  "packet bytes from higher layer, sum(packetBytes)"
scalar MANET.node[3].eth.mac 	rxPausePkUnits:count 	0
attr interpolationmode  none
attr title  "pause units received, count"
scalar MANET.node[3].eth.mac 	rxPausePkUnits:sum 	0
attr interpolationmode  none
attr title  "pause units received, sum"
scalar MANET.node[3].eth.mac 	txPausePkUnits:count 	0
attr interpolationmode  none
attr title  "pause units sent, count"
scalar MANET.node[3].eth.mac 	txPausePkUnits:sum 	0
attr interpolationmode  none
attr title  "pause units sent, sum"
scalar MANET.node[3].eth.mac 	passedUpPk:count 	0
attr interpolationmode  none
attr source  packetSentToUpper
attr title  "packets passed to higher layer, count"
scalar MANET.node[3].eth.mac 	passedUpPk:sum(packetBytes) 	0
attr interpolationmode  none
attr source  packetSentToUpper
attr title  "packets passed to higher layer, sum(packetBytes)"
scalar MANET.node[3].eth.mac 	rxPkOk:count 	0
attr interpolationmode  none
attr source  rxPkOk
attr title  "packets received OK, count"
scalar MANET.node[3].eth.mac 	rxPkOk:sum(packetBytes) 	0
attr interpolationmode  none
attr source  rxPkOk
attr title  "packets received OK, sum(packetBytes)"
scalar MANET.node[3].eth.mac 	txPk:count 	0
attr interpolationmode  none
attr source  txPk
attr title  "packets transmitted, count"
scalar MANET.node[3].eth.mac 	txPk:sum(packetBytes) 	0
attr interpolationmode  none
attr source  txPk
attr title  "packets transmitted, sum(packetBytes)"
scalar MANET.node[3].eth.encap 	pauseSent:count 	0
attr title  "pause sent, count"
scalar MANET.node[3].eth.encap 	pauseSent:sum 	0
attr title  "pause sent, sum"
scalar MANET.node[3].eth.encap 	decapPk:count 	0
attr interpolationmode  none
attr source  decapPk
attr title  "packets decapsulated, count"
scalar MANET.node[3].eth.encap 	decapPk:sum(packetBytes) 	0
attr interpolationmode  none
attr source  decapPk
attr title  "packets decapsulated, sum(packetBytes)"
scalar MANET.node[3].eth.encap 	encapPk:count 	0
attr interpolationmode  none
attr source  encapPk
attr title  "packets encapsulated, count"
scalar MANET.node[3].eth.encap 	encapPk:sum(packetBytes) 	0
attr interpolationmode  none
attr source  encapPk
attr title  "packets encapsulated, sum(packetBytes)"
scalar MANET.node[3].batteryStats 	nominal 	1187988120
attr unit  mW-s
scalar MANET.node[3].batteryStats 	total 	29814.707808256
attr unit  mW-s
scalar MANET.node[3].batteryStats 	lifetime 	-1
attr unit  s
scalar MANET.node[3].batteryStats 	"Mean power consumption" 	61.984839518204
attr unit  mW
scalar MANET.node[4].udp 	droppedPkBadChecksum:count 	0
attr interpolationmode  none
attr title  "packets dropped (checksum error), count"
scalar MANET.node[4].udp 	droppedPkWrongPort:count 	0
attr interpolationmode  none
attr title  "packets dropped (wrong port), count"
scalar MANET.node[4].udp 	passedUpPk:count 	0
attr interpolationmode  none
attr title  "packets passed up, count"
scalar MANET.node[4].udp 	rcvdPk:count 	0
attr interpolationmode  none
attr source  rcvdPk
attr title  "packets received, count"
scalar MANET.node[4].udp 	rcvdPk:sum(packetBytes) 	0
attr interpolationmode  none
attr source  rcvdPk
attr title  "packets received, sum(packetBytes)"
scalar MANET.node[4].udp 	sentPk:count 	0
attr interpolationmode  none
attr source  sentPk
attr title  "packets sent, count"
scalar MANET.node[4].udp 	sentPk:sum(packetBytes) 	0
attr interpolationmode  none
attr source  sentPk
attr title  "packets sent, sum(packetBytes)"
scalar MANET.node[4].networkLayer.arp 	failedResolution:count 	0
attr title  "ARP failed resolutions, count"
scalar MANET.node[4].networkLayer.arp 	initiatedResolution:count 	0
attr title  "ARP initiated resolutions, count"
scalar MANET.node[4].networkLayer.arp 	sentReplies:count 	0
attr title  "ARP replies sent, count"
scalar MANET.node[4].networkLayer.arp 	sentReq:count 	0
attr title  "ARP request sent, count"
scalar MANET.node[4].nic802154.mac 	nbTxFrames 	1463
scalar MANET.node[4].nic802154.mac 	nbRxFrames 	2284
scalar MANET.node[4].nic802154.mac 	nbDroppedFrames 	0
scalar MANET.node[4].nic802154.mac 	nbMissedAcks 	0
scalar MANET.node[4].nic802154.mac 	nbRecvdAcks 	0
scalar MANET.node[4].nic802154.mac 	nbTxAcks 	0
scalar MANET.node[4].nic802154.mac 	nbDuplicates 	0
scalar MANET.node[4].nic802154.mac 	meanBackoff 	0.0097750511247442
scalar MANET.node[4].nic802154.mac 	nbBackoffs 	1467
scalar MANET.node[4].nic802154.mac 	backoffDurations 	14.34
scalar MANET.node[4].nic802154.phy 	nbFramesWithInterference 	357
scalar MANET.node[4].nic802154.phy 	nbFramesWithoutInterference 	2898
scalar MANET.node[4].nic802154.phy 	nbFramesWithInterferencePartial 	88
scalar MANET.node[4].nic802154.phy 	nbFramesWithoutInterferencePartial 	0
scalar MANET.node[4].nic802154.phy 	nbFramesWithInterferenceDropped 	225
scalar MANET.node[4].nic802154.phy 	nbFramesWithoutInterferenceDropped 	0
scalar MANET.node[4].eth.mac 	"simulated time" 	481
scalar MANET.node[4].eth.mac 	full-duplex 	1
scalar MANET.node[4].eth.mac 	"frames/sec sent" 	0
scalar MANET.node[4].eth.mac 	"frames/sec rcvd" 	0
scalar MANET.node[4].eth.mac 	"bits/sec sent" 	0
scalar MANET.node[4].eth.mac 	"bits/sec rcvd" 	0
scalar MANET.node[4].eth.mac 	"rx channel idle (%)" 	100
scalar MANET.node[4].eth.mac 	"rx channel utilization (%)" 	0
scalar MANET.node[4].eth.mac 	droppedPkNotForUs:count 	0
attr interpolationmode  none
attr source  dropPkNotForUs
attr title  "packets dropped/not for us, count"
scalar MANET.node[4].eth.mac 	droppedPkNotForUs:sum(packetBytes) 	0
attr interpolationmode  none
attr source  dropPkNotForUs
attr title  "packets dropped/not for us, sum(packetBytes)"
scalar MANET.node[4].eth.mac 	droppedPkBitError:count 	0
attr interpolationmode  none
attr source  dropPkBitError
attr title  "packets dropped/bit error, count"
scalar MANET.node[4].eth.mac 	droppedPkBitError:sum(packetBytes) 	0
attr interpolationmode  none
attr source  dropPkBitError
attr title  "packets dropped/bit error, sum(packetBytes)"
scalar MANET.node[4].eth.mac 	droppedPkIfaceDown:count 	0
attr interpolationmode  none
attr source  dropPkIfaceDown
attr title  "packets dropped/interface down, count"
scalar MANET.node[4].eth.mac 	droppedPkIfaceDown:sum(packetBytes) 	0
attr interpolationmode  none
attr source  dropPkIfaceDown
attr title  "packets dropped/interface down, sum(packetBytes)"
scalar MANET.node[4].eth.mac 	rxPkFromHL:count 	0
attr interpolationmode  none
attr source  rxPkFromHL
attr title  "packet bytes from higher layer, count"
scalar MANET.node[4].eth.mac 	rxPkFromHL:sum(packetBytes) 	0
attr interpolationmode  none
attr source  rxPkFromHL
attr title  "packet bytes from higher layer, sum(packetBytes)"
scalar MANET.node[4].eth.mac 	rxPausePkUnits:count 	0
attr interpolationmode  none
attr title  "pause units received, count"
scalar MANET.node[4].eth.mac 	rxPausePkUnits:sum 	0
attr interpolationmode  none
attr title  "pause units received, sum"
scalar MANET.node[4].eth.mac 	txPausePkUnits:count 	0
attr interpolationmode  none
attr title  "pause units sent, count"
scalar MANET.node[4].eth.mac 	txPausePkUnits:sum 	0
attr interpolationmode  none
attr title  "pause units sent, sum"
scalar MANET.node[4].eth.mac 	passedUpPk:count 	0
attr interpolationmode  none
attr source  packetSentToUpper
attr title  "packets passed to higher layer, count"
scalar MANET.node[4].eth.mac 	passedUpPk:sum(packetBytes) 	0
attr interpolationmode  none
attr source  packetSentToUpper
attr title  "packets passed to higher layer, sum(packetBytes)"
scalar MANET.node[4].eth.mac 	rxPkOk:count 	0
attr interpolationmode  none
attr source  rxPkOk
attr title  "packets received OK, count"
scalar MANET.node[4].eth.mac 	rxPkOk:sum(packetBytes) 	0
attr interpolationmode  none
attr source  rxPkOk
attr title  "packets received OK, sum(packetBytes)"
scalar MANET.node[4].eth.mac 	txPk:count 	0
attr interpolationmode  none
attr source  txPk
attr title  "packets transmitted, count"
scalar MANET.node[4].eth.mac 	txPk:sum(packetBytes) 	0
attr interpolationmode  none
attr source  txPk
attr title  "packets transmitted, sum(packetBytes)"
scalar MANET.node[4].eth.encap 	pauseSent:count 	0
attr title  "pause sent, count"
scalar MANET.node[4].eth.encap 	pauseSent:sum 	0
attr title  "pause sent, sum"
scalar MANET.node[4].eth.encap 	decapPk:count 	0
attr interpolationmode  none
attr source  decapPk
attr title  "packets decapsulated, count"
scalar MANET.node[4].eth.encap 	decapPk:sum(packetBytes) 	0
attr interpolationmode  none
attr source  decapPk
attr title  "packets decapsulated, sum(packetBytes)"
scalar MANET.node[4].eth.encap 	encapPk:count 	0
attr interpolationmode  none
attr source  encapPk
attr title  "packets encapsulated, count"
scalar MANET.node[4].eth.encap 	encapPk:sum(packetBytes) 	0
attr interpolationmode  none
attr source  encapPk
attr title  "packets encapsulated, sum(packetBytes)"
scalar MANET.node[4].batteryStats 	nominal 	1187988120
attr unit  mW-s
scalar MANET.node[4].batteryStats 	total 	29810.310433149
attr unit  mW-s
scalar MANET.node[4].batteryStats 	lifetime 	-1
attr unit  s
scalar MANET.node[4].batteryStats 	"Mean power consumption" 	61.975697366215
attr unit  mW
scalar MANET.node[5].udp 	droppedPkBadChecksum:count 	0
attr interpolationmode  none
attr title  "packets dropped (checksum error), count"
scalar MANET.node[5].udp 	droppedPkWrongPort:count 	0
attr interpolationmode  none
attr title  "packets dropped (wrong port), count"
scalar MANET.node[5].udp 	passedUpPk:count 	0
attr interpolationmode  none
attr title  "packets passed up, count"
scalar MANET.node[5].udp 	rcvdPk:count 	0
attr interpolationmode  none
attr source  rcvdPk
attr title  "packets received, count"
scalar MANET.node[5].udp 	rcvdPk:sum(packetBytes) 	0
attr interpolationmode  none
attr source  rcvdPk
attr title  "packets received, sum(packetBytes)"
scalar MANET.node[5].udp 	sentPk:count 	0
attr interpolationmode  none
attr source  sentPk
attr title  "packets sent, count"
scalar MANET.node[5].udp 	sentPk:sum(packetBytes) 	0
attr interpolationmode  none
attr source  sentPk
attr title  "packets sent, sum(packetBytes)"
scalar MANET.node[5].networkLayer.arp 	failedResolution:count 	0
attr title  "ARP failed resolutions, count"
scalar MANET.node[5].networkLayer.arp 	initiatedResolution:count 	0
attr title  "ARP initiated resolutions, count"
scalar MANET.node[5].networkLayer.arp 	sentReplies:count 	0
attr title  "ARP replies sent, count"
scalar MANET.node[5].networkLayer.arp 	sentReq:count 	0
attr title  "ARP request sent, count"
scalar MANET.node[5].nic802154.mac 	nbTxFrames 	1450
scalar MANET.node[5].nic802154.mac 	nbRxFrames 	2020
scalar MANET.node[5].nic802154.mac 	nbDroppedFrames 	0
scalar MANET.node[5].nic802154.mac 	nbMissedAcks 	0
scalar MANET.node[5].nic802154.mac 	nbRecvdAcks 	0
scalar MANET.node[5].nic802154.mac 	nbTxAcks 	0
scalar MANET.node[5].nic802154.mac 	nbDuplicates 	0
scalar MANET.node[5].nic802154.mac 	meanBackoff 	0.0098344827586205
scalar MANET.node[5].nic802154.mac 	nbBackoffs 	1450
scalar MANET.node[5].nic802154.mac 	backoffDurations 	14.26
scalar MANET.node[5].nic802154.phy 	nbFramesWithInterference 	297
scalar MANET.node[5].nic802154.phy 	nbFramesWithoutInterference 	2707
scalar MANET.node[5].nic802154.phy 	nbFramesWithInterferencePartial 	303
scalar MANET.node[5].nic802154.phy 	nbFramesWithoutInterferencePartial 	0
scalar MANET.node[5].nic802154.phy 	nbFramesWithInterferenceDropped 	155
scalar MANET.node[5].nic802154.phy 	nbFramesWithoutInterferenceDropped 	0
scalar MANET.node[5].eth.mac 	"simulated time" 	481
scalar MANET.node[5].eth.mac 	full-duplex 	1
scalar MANET.node[5].eth.mac 	"frames/sec sent" 	0
scalar MANET.node[5].eth.mac 	"frames/sec rcvd" 	0
scalar MANET.node[5].eth.mac 	"bits/sec sent" 	0
scalar MANET.node[5].eth.mac 	"bits/sec rcvd" 	0
scalar MANET.node[5].eth.mac 	"rx channel idle (%)" 	100
scalar MANET.node[5].eth.mac 	"rx channel utilization (%)" 	0
scalar MANET.node[5].eth.mac 	droppedPkNotForUs:count 	0
attr interpolationmode  none
attr source  dropPkNotForUs
attr title  "packets dropped/not for us, count"
scalar MANET.node[5].eth.mac 	droppedPkNotForUs:sum(packetBytes) 	0
attr interpolationmode  none
attr source  dropPkNotForUs
attr title  "packets dropped/not for us, sum(packetBytes)"
scalar MANET.node[5].eth.mac 	droppedPkBitError:count 	0
attr interpolationmode  none
attr source  dropPkBitError
attr title  "packets dropped/bit error, count"
scalar MANET.node[5].eth.mac 	droppedPkBitError:sum(packetBytes) 	0
attr interpolationmode  none
attr source  dropPkBitError
attr title  "packets dropped/bit error, sum(packetBytes)"
scalar MANET.node[5].eth.mac 	droppedPkIfaceDown:count 	0
attr interpolationmode  none
attr source  dropPkIfaceDown
attr title  "packets dropped/interface down, count"
scalar MANET.node[5].eth.mac 	droppedPkIfaceDown:sum(packetBytes) 	0
attr interpolationmode  none
attr source  dropPkIfaceDown
attr title  "packets dropped/interface down, sum(packetBytes)"
scalar MANET.node[5].eth.mac 	rxPkFromHL:count 	0
attr interpolationmode  none
attr source  rxPkFromHL
attr title  "packet bytes from higher layer, count"
scalar MANET.node[5].eth.mac 	rxPkFromHL:sum(packetBytes) 	0
attr interpolationmode  none
attr source  rxPkFromHL
attr title  "packet bytes from higher layer, sum(packetBytes)"
scalar MANET.node[5].eth.mac 	rxPausePkUnits:count 	0
attr interpolationmode  none
attr title  "pause units received, count"
scalar MANET.node[5].eth.mac 	rxPausePkUnits:sum 	0
attr interpolationmode  none
attr title  "pause units received, sum"
scalar MANET.node[5].eth.mac 	txPausePkUnits:count 	0
attr interpolationmode  none
attr title  "pause units sent, count"
scalar MANET.node[5].eth.mac 	txPausePkUnits:sum 	0
attr interpolationmode  none
attr title  "pause units sent, sum"
scalar MANET.node[5].eth.mac 	passedUpPk:count 	0
attr interpolationmode  none
attr source  packetSentToUpper
attr title  "packets passed to higher layer, count"
scalar MANET.node[5].eth.mac 	passedUpPk:sum(packetBytes) 	0
attr interpolationmode  none
attr source  packetSentToUpper
attr title  "packets passed to higher layer, sum(packetBytes)"
scalar MANET.node[5].eth.mac 	rxPkOk:count 	0
attr interpolationmode  none
attr source  rxPkOk
attr title  "packets received OK, count"
scalar MANET.node[5].eth.mac 	rxPkOk:sum(packetBytes) 	0
attr interpolationmode  none
attr source  rxPkOk
attr title  "packets received OK, sum(packetBytes)"
scalar MANET.node[5].eth.mac 	txPk:count 	0
attr interpolationmode  none
attr source  txPk
attr title  "packets transmitted, count"
scalar MANET.node[5].eth.mac 	txPk:sum(packetBytes) 	0
attr interpolationmode  none
attr source  txPk
attr title  "packets transmitted, sum(packetBytes)"
scalar MANET.node[5].eth.encap 	pauseSent:count 	0
attr title  "pause sent, count"
scalar MANET.node[5].eth.encap 	pauseSent:sum 	0
attr title  "pause sent, sum"
scalar MANET.node[5].eth.encap 	decapPk:count 	0
attr interpolationmode  none
attr source  decapPk
attr title  "packets decapsulated, count"
scalar MANET.node[5].eth.encap 	decapPk:sum(packetBytes) 	0
attr interpolationmode  none
attr source  decapPk
attr title  "packets decapsulated, sum(packetBytes)"
scalar MANET.node[5].eth.encap 	encapPk:count 	0
attr interpolationmode  none
attr source  encapPk
attr title  "packets encapsulated, count"
scalar MANET.node[5].eth.encap 	encapPk:sum(packetBytes) 	0
attr interpolationmode  none
attr source  encapPk
attr title  "packets encapsulated, sum(packetBytes)"
scalar MANET.node[5].batteryStats 	nominal 	1187988120
attr unit  mW-s
scalar MANET.node[5].batteryStats 	total 	29810.585266829
attr unit  mW-s
scalar MANET.node[5].batteryStats 	lifetime 	-1
attr unit  s
scalar MANET.node[5].batteryStats 	"Mean power consumption" 	61.976268746005
attr unit  mW
scalar MANET.node[6].udp 	droppedPkBadChecksum:count 	0
attr interpolationmode  none
attr title  "packets dropped (checksum error), count"
scalar MANET.node[6].udp 	droppedPkWrongPort:count 	0
attr interpolationmode  none
attr title  "packets dropped (wrong port), count"
scalar MANET.node[6].udp 	passedUpPk:count 	0
attr interpolationmode  none
attr title  "packets passed up, count"
scalar MANET.node[6].udp 	rcvdPk:count 	0
attr interpolationmode  none
attr source  rcvdPk
attr title  "packets received, count"
scalar MANET.node[6].udp 	rcvdPk:sum(packetBytes) 	0
attr interpolationmode  none
attr source  rcvdPk
attr title  "packets received, sum(packetBytes)"
scalar MANET.node[6].udp 	sentPk:count 	0
attr interpolationmode  none
attr source  sentPk
attr title  "packets sent, count"
scalar MANET.node[6].udp 	sentPk:sum(packetBytes) 	0
attr interpolationmode  none
attr source  sentPk
attr title  "packets sent, sum(packetBytes)"
scalar MANET.node[6].networkLayer.arp 	failedResolution:count 	0
attr title  "ARP failed resolutions, count"
scalar MANET.node[6].networkLayer.arp 	initiatedResolution:count 	0
attr title  "ARP initiated resolutions, count"
scalar MANET.node[6].networkLayer.arp 	sentReplies:count 	0
attr title  "ARP replies sent, count"
scalar MANET.node[6].networkLayer.arp 	sentReq:count 	0
attr title  "ARP request sent, count"
scalar MANET.node[6].nic802154.mac 	nbTxFrames 	1436
scalar MANET.node[6].nic802154.mac 	nbRxFrames 	2049
scalar MANET.node[6].nic802154.mac 	nbDroppedFrames 	0
scalar MANET.node[6].nic802154.mac 	nbMissedAcks 	0
scalar MANET.node[6].nic802154.mac 	nbRecvdAcks 	0
scalar MANET.node[6].nic802154.mac 	nbTxAcks 	0
scalar MANET.node[6].nic802154.mac 	nbDuplicates 	0
scalar MANET.node[6].nic802154.mac 	meanBackoff 	0.010027855153203
scalar MANET.node[6].nic802154.mac 	nbBackoffs 	1436
scalar MANET.node[6].nic802154.mac 	backoffDurations 	14.4
scalar MANET.node[6].nic802154.phy 	nbFramesWithInterference 	227
scalar MANET.node[6].nic802154.phy 	nbFramesWithoutInterference 	2724
scalar MANET.node[6].nic802154.phy 	nbFramesWithInterferencePartial 	337
scalar MANET.node[6].nic802154.phy 	nbFramesWithoutInterferencePartial 	0
scalar MANET.node[6].nic802154.phy 	nbFramesWithInterferenceDropped 	188
scalar MANET.node[6].nic802154.phy 	nbFramesWithoutInterferenceDropped 	0
scalar MANET.node[6].eth.mac 	"simulated time" 	481
scalar MANET.node[6].eth.mac 	full-duplex 	1
scalar MANET.node[6].eth.mac 	"frames/sec sent" 	0
scalar MANET.node[6].eth.mac 	"frames/sec rcvd" 	0
scalar MANET.node[6].eth.mac 	"bits/sec sent" 	0
scalar MANET.node[6].eth.mac 	"bits/sec rcvd" 	0
scalar MANET.node[6].eth.mac 	"rx channel idle (%)" 	100
scalar MANET.node[6].eth.mac 	"rx channel utilization (%)" 	0
scalar MANET.node[6].eth.mac 	droppedPkNotForUs:count 	0
attr interpolationmode  none
attr source  dropPkNotForUs
attr title  "packets dropped/not for us, count"
scalar MANET.node[6].eth.mac 	droppedPkNotForUs:sum(packetBytes) 	0
attr interpolationmode  none
attr source  dropPkNotForUs
attr title  "packets dropped/not for us, sum(packetBytes)"
scalar MANET.node[6].eth.mac 	droppedPkBitError:count 	0
attr interpolationmode  none
attr source  dropPkBitError
attr title  "packets dropped/bit error, count"
scalar MANET.node[6].eth.mac 	droppedPkBitError:sum(packetBytes) 	0
attr interpolationmode  none
attr source  dropPkBitError
attr title  "packets dropped/bit error, sum(packetBytes)"
scalar MANET.node[6].eth.mac 	droppedPkIfaceDown:count 	0
attr interpolationmode  none
attr source  dropPkIfaceDown
attr title  "packets dropped/interface down, count"
scalar MANET.node[6].eth.mac 	droppedPkIfaceDown:sum(packetBytes) 	0
attr interpolationmode  none
attr source  dropPkIfaceDown
attr title  "packets dropped/interface down, sum(packetBytes)"
scalar MANET.node[6].eth.mac 	rxPkFromHL:count 	0
attr interpolationmode  none
attr source  rxPkFromHL
attr title  "packet bytes from higher layer, count"
scalar MANET.node[6].eth.mac 	rxPkFromHL:sum(packetBytes) 	0
attr interpolationmode  none
attr source  rxPkFromHL
attr title  "packet bytes from higher layer, sum(packetBytes)"
scalar MANET.node[6].eth.mac 	rxPausePkUnits:count 	0
attr interpolationmode  none
attr title  "pause units received, count"
scalar MANET.node[6].eth.mac 	rxPausePkUnits:sum 	0
attr interpolationmode  none
attr title  "pause units received, sum"
scalar MANET.node[6].eth.mac 	txPausePkUnits:count 	0
attr interpolationmode  none
attr title  "pause units sent, count"
scalar MANET.node[6].eth.mac 	txPausePkUnits:sum 	0
attr interpolationmode  none
attr title  "pause units sent, sum"
scalar MANET.node[6].eth.mac 	passedUpPk:count 	0
attr interpolationmode  none
attr source  packetSentToUpper
attr title  "packets passed to higher layer, count"
scalar MANET.node[6].eth.mac 	passedUpPk:sum(packetBytes) 	0
attr interpolationmode  none
attr source  packetSentToUpper
attr title  "packets passed to higher layer, sum(packetBytes)"
scalar MANET.node[6].eth.mac 	rxPkOk:count 	0
attr interpolationmode  none
attr source  rxPkOk
attr title  "packets received OK, count"
scalar MANET.node[6].eth.mac 	rxPkOk:sum(packetBytes) 	0
attr interpolationmode  none
attr source  rxPkOk
attr title  "packets received OK, sum(packetBytes)"
scalar MANET.node[6].eth.mac 	txPk:count 	0
attr interpolationmode  none
attr source  txPk
attr title  "packets transmitted, count"
scalar MANET.node[6].eth.mac 	txPk:sum(packetBytes) 	0
attr interpolationmode  none
attr source  txPk
attr title  "packets transmitted, sum(packetBytes)"
scalar MANET.node[6].eth.encap 	pauseSent:count 	0
attr title  "pause sent, count"
scalar MANET.node[6].eth.encap 	pauseSent:sum 	0
attr title  "pause sent, sum"
scalar MANET.node[6].eth.encap 	decapPk:count 	0
attr interpolationmode  none
attr source  decapPk
attr title  "packets decapsulated, count"
scalar MANET.node[6].eth.encap 	decapPk:sum(packetBytes) 	0
attr interpolationmode  none
attr source  decapPk
attr title  "packets decapsulated, sum(packetBytes)"
scalar MANET.node[6].eth.encap 	encapPk:count 	0
attr interpolationmode  none
attr source  encapPk
attr title  "packets encapsulated, count"
scalar MANET.node[6].eth.encap 	encapPk:sum(packetBytes) 	0
attr interpolationmode  none
attr source  encapPk
attr title  "packets encapsulated, sum(packetBytes)"
scalar MANET.node[6].batteryStats 	nominal 	1187988120
attr unit  mW-s
scalar MANET.node[6].batteryStats 	total 	29810.881231785
attr unit  mW-s
scalar MANET.node[6].batteryStats 	lifetime 	-1
attr unit  s
scalar MANET.node[6].batteryStats 	"Mean power consumption" 	61.976884057765
attr unit  mW
scalar MANET.node[7].udp 	droppedPkBadChecksum:count 	0
attr interpolationmode  none
attr title  "packets dropped (checksum error), count"
scalar MANET.node[7].udp 	droppedPkWrongPort:count 	0
attr interpolationmode  none
attr title  "packets dropped (wrong port), count"
scalar MANET.node[7].udp 	passedUpPk:count 	0
attr interpolationmode  none
attr title  "packets passed up, count"
scalar MANET.node[7].udp 	rcvdPk:count 	0
attr interpolationmode  none
attr source  rcvdPk
attr title  "packets received, count"
scalar MANET.node[7].udp 	rcvdPk:sum(packetBytes) 	0
attr interpolationmode  none
attr source  rcvdPk
attr title  "packets received, sum(packetBytes)"
scalar MANET.node[7].udp 	sentPk:count 	0
attr interpolationmode  none
attr source  sentPk
attr title  "packets sent, count"
scalar MANET.node[7].udp 	sentPk:sum(packetBytes) 	0
attr interpolationmode  none
attr source  sentPk
attr title  "packets sent, sum(packetBytes)"
scalar MANET.node[7].networkLayer.arp 	failedResolution:count 	0
attr title  "ARP failed resolutions, count"
scalar MANET.node[7].networkLayer.arp 	initiatedResolution:count 	0
attr title  "ARP initiated resolutions, count"
scalar MANET.node[7].networkLayer.arp 	sentReplies:count 	0
attr title  "ARP replies sent, count"
scalar MANET.node[7].networkLayer.arp 	sentReq:count 	0
attr title  "ARP request sent, count"
scalar MANET.node[7].nic802154.mac 	nbTxFrames 	1444
scalar MANET.node[7].nic802154.mac 	nbRxFrames 	2114
scalar MANET.node[7].nic802154.mac 	nbDroppedFrames 	0
scalar MANET.node[7].nic802154.mac 	nbMissedAcks 	0
scalar MANET.node[7].nic802154.mac 	nbRecvdAcks 	0
scalar MANET.node[7].nic802154.mac 	nbTxAcks 	0
scalar MANET.node[7].nic802154.mac 	nbDuplicates 	0
scalar MANET.node[7].nic802154.mac 	meanBackoff 	0.0096260387811633
scalar MANET.node[7].nic802154.mac 	nbBackoffs 	1444
scalar MANET.node[7].nic802154.mac 	backoffDurations 	13.9
scalar MANET.node[7].nic802154.phy 	nbFramesWithInterference 	421
scalar MANET.node[7].nic802154.phy 	nbFramesWithoutInterference 	2690
scalar MANET.node[7].nic802154.phy 	nbFramesWithInterferencePartial 	307
scalar MANET.node[7].nic802154.phy 	nbFramesWithoutInterferencePartial 	0
scalar MANET.node[7].nic802154.phy 	nbFramesWithInterferenceDropped 	50
scalar MANET.node[7].nic802154.phy 	nbFramesWithoutInterferenceDropped 	0
scalar MANET.node[7].eth.mac 	"simulated time" 	481
scalar MANET.node[7].eth.mac 	full-duplex 	1
scalar MANET.node[7].eth.mac 	"frames/sec sent" 	0
scalar MANET.node[7].eth.mac 	"frames/sec rcvd" 	0
scalar MANET.node[7].eth.mac 	"bits/sec sent" 	0
scalar MANET.node[7].eth.mac 	"bits/sec rcvd" 	0
scalar MANET.node[7].eth.mac 	"rx channel idle (%)" 	100
scalar MANET.node[7].eth.mac 	"rx channel utilization (%)" 	0
scalar MANET.node[7].eth.mac 	droppedPkNotForUs:count 	0
attr interpolationmode  none
attr source  dropPkNotForUs
attr title  "packets dropped/not for us, count"
scalar MANET.node[7].eth.mac 	droppedPkNotForUs:sum(packetBytes) 	0
attr interpolationmode  none
attr source  dropPkNotForUs
attr title  "packets dropped/not for us, sum(packetBytes)"
scalar MANET.node[7].eth.mac 	droppedPkBitError:count 	0
attr interpolationmode  none
attr source  dropPkBitError
attr title  "packets dropped/bit error, count"
scalar MANET.node[7].eth.mac 	droppedPkBitError:sum(packetBytes) 	0
attr interpolationmode  none
attr source  dropPkBitError
attr title  "packets dropped/bit error, sum(packetBytes)"
scalar MANET.node[7].eth.mac 	droppedPkIfaceDown:count 	0
attr interpolationmode  none
attr source  dropPkIfaceDown
attr title  "packets dropped/interface down, count"
scalar MANET.node[7].eth.mac 	droppedPkIfaceDown:sum(packetBytes) 	0
attr interpolationmode  none
attr source  dropPkIfaceDown
attr title  "packets dropped/interface down, sum(packetBytes)"
scalar MANET.node[7].eth.mac 	rxPkFromHL:count 	0
attr interpolationmode  none
attr source  rxPkFromHL
attr title  "packet bytes from higher layer, count"
scalar MANET.node[7].eth.mac 	rxPkFromHL:sum(packetBytes) 	0
attr interpolationmode  none
attr source  rxPkFromHL
attr title  "packet bytes from higher layer, sum(packetBytes)"
scalar MANET.node[7].eth.mac 	rxPausePkUnits:count 	0
attr interpolationmode  none
attr title  "pause units received, count"
scalar MANET.node[7].eth.mac 	rxPausePkUnits:sum 	0
attr interpolationmode  none
attr title  "pause units received, sum"
scalar MANET.node[7].eth.mac 	txPausePkUnits:count 	0
attr interpolationmode  none
attr title  "pause units sent, count"
scalar MANET.node[7].eth.mac 	txPausePkUnits:sum 	0
attr interpolationmode  none
attr title  "pause units sent, sum"
scalar MANET.node[7].eth.mac 	passedUpPk:count 	0
attr interpolationmode  none
attr source  packetSentToUpper
attr title  "packets passed to higher layer, count"
scalar MANET.node[7].eth.mac 	passedUpPk:sum(packetBytes) 	0
attr interpolationmode  none
attr source  packetSentToUpper
attr title  "packets passed to higher layer, sum(packetBytes)"
scalar MANET.node[7].eth.mac 	rxPkOk:count 	0
attr interpolationmode  none
attr source  rxPkOk
attr title  "packets received OK, count"
scalar MANET.node[7].eth.mac 	rxPkOk:sum(packetBytes) 	0
attr interpolationmode  none
attr source  rxPkOk
attr title  "packets received OK, sum(packetBytes)"
scalar MANET.node[7].eth.mac 	txPk:count 	0
attr interpolationmode  none
attr source  txPk
attr title  "packets transmitted, count"
scalar MANET.node[7].eth.mac 	txPk:sum(packetBytes) 	0
attr interpolationmode  none
attr source  txPk
attr title  "packets transmitted, sum(packetBytes)"
scalar MANET.node[7].eth.encap 	pauseSent:count 	0
attr title  "pause sent, count"
scalar MANET.node[7].eth.encap 	pauseSent:sum 	0
attr title  "pause sent, sum"
scalar MANET.node[7].eth.encap 	decapPk:count 	0
attr interpolationmode  none
attr source  decapPk
attr title  "packets decapsulated, count"
scalar MANET.node[7].eth.encap 	decapPk:sum(packetBytes) 	0
attr interpolationmode  none
attr source  decapPk
attr title  "packets decapsulated, sum(packetBytes)"
scalar MANET.node[7].eth.encap 	encapPk:count 	0
attr interpolationmode  none
attr source  encapPk
attr title  "packets encapsulated, count"
scalar MANET.node[7].eth.encap 	encapPk:sum(packetBytes) 	0
attr interpolationmode  none
attr source  encapPk
attr title  "packets encapsulated, sum(packetBytes)"
scalar MANET.node[7].batteryStats 	nominal 	1187988120
attr unit  mW-s
scalar MANET.node[7].batteryStats 	total 	29810.712116241
attr unit  mW-s
scalar MANET.node[7].batteryStats 	lifetime 	-1
attr unit  s
scalar MANET.node[7].batteryStats 	"Mean power consumption" 	61.976532466198
attr unit  mW
scalar MANET.node[8].udp 	droppedPkBadChecksum:count 	0
attr interpolationmode  none
attr title  "packets dropped (checksum error), count"
scalar MANET.node[8].udp 	droppedPkWrongPort:count 	0
attr interpolationmode  none
attr title  "packets dropped (wrong port), count"
scalar MANET.node[8].udp 	passedUpPk:count 	0
attr interpolationmode  none
attr title  "packets passed up, count"
scalar MANET.node[8].udp 	rcvdPk:count 	0
attr interpolationmode  none
attr source  rcvdPk
attr title  "packets received, count"
scalar MANET.node[8].udp 	rcvdPk:sum(packetBytes) 	0
attr interpolationmode  none
attr source  rcvdPk
attr title  "packets received, sum(packetBytes)"
scalar MANET.node[8].udp 	sentPk:count 	0
attr interpolationmode  none
attr source  sentPk
attr title  "packets sent, count"
scalar MANET.node[8].udp 	sentPk:sum(packetBytes) 	0
attr interpolationmode  none
attr source  sentPk
attr title  "packets sent, sum(packetBytes)"
scalar MANET.node[8].networkLayer.arp 	failedResolution:count 	0
attr title  "ARP failed resolutions, count"
scalar MANET.node[8].networkLayer.arp 	initiatedResolution:count 	0
attr title  "ARP initiated resolutions, count"
scalar MANET.node[8].networkLayer.arp 	sentReplies:count 	0
attr title  "ARP replies sent, count"
scalar MANET.node[8].networkLayer.arp 	sentReq:count 	0
attr title  "ARP request sent, count"
scalar MANET.node[8].nic802154.mac 	nbTxFrames 	1455
scalar MANET.node[8].nic802154.mac 	nbRxFrames 	2025
scalar MANET.node[8].nic802154.mac 	nbDroppedFrames 	0
scalar MANET.node[8].nic802154.mac 	nbMissedAcks 	0
scalar MANET.node[8].nic802154.mac 	nbRecvdAcks 	0
scalar MANET.node[8].nic802154.mac 	nbTxAcks 	0
scalar MANET.node[8].nic802154.mac 	nbDuplicates 	0
scalar MANET.node[8].nic802154.mac 	meanBackoff 	0.01007560137457
scalar MANET.node[8].nic802154.mac 	nbBackoffs 	1455
scalar MANET.node[8].nic802154.mac 	backoffDurations 	14.66
scalar MANET.node[8].nic802154.phy 	nbFramesWithInterference 	324
scalar MANET.node[8].nic802154.phy 	nbFramesWithoutInterference 	2719
scalar MANET.node[8].nic802154.phy 	nbFramesWithInterferencePartial 	146
scalar MANET.node[8].nic802154.phy 	nbFramesWithoutInterferencePartial 	0
scalar MANET.node[8].nic802154.phy 	nbFramesWithInterferenceDropped 	268
scalar MANET.node[8].nic802154.phy 	nbFramesWithoutInterferenceDropped 	0
scalar MANET.node[8].eth.mac 	"simulated time" 	481
scalar MANET.node[8].eth.mac 	full-duplex 	1
scalar MANET.node[8].eth.mac 	"frames/sec sent" 	0
scalar MANET.node[8].eth.mac 	"frames/sec rcvd" 	0
scalar MANET.node[8].eth.mac 	"bits/sec sent" 	0
scalar MANET.node[8].eth.mac 	"bits/sec rcvd" 	0
scalar MANET.node[8].eth.mac 	"rx channel idle (%)" 	100
scalar MANET.node[8].eth.mac 	"rx channel utilization (%)" 	0
scalar MANET.node[8].eth.mac 	droppedPkNotForUs:count 	0
attr interpolationmode  none
attr source  dropPkNotForUs
attr title  "packets dropped/not for us, count"
scalar MANET.node[8].eth.mac 	droppedPkNotForUs:sum(packetBytes) 	0
attr interpolationmode  none
attr source  dropPkNotForUs
attr title  "packets dropped/not for us, sum(packetBytes)"
scalar MANET.node[8].eth.mac 	droppedPkBitError:count 	0
attr interpolationmode  none
attr source  dropPkBitError
attr title  "packets dropped/bit error, count"
scalar MANET.node[8].eth.mac 	droppedPkBitError:sum(packetBytes) 	0
attr interpolationmode  none
attr source  dropPkBitError
attr title  "packets dropped/bit error, sum(packetBytes)"
scalar MANET.node[8].eth.mac 	droppedPkIfaceDown:count 	0
attr interpolationmode  none
attr source  dropPkIfaceDown
attr title  "packets dropped/interface down, count"
scalar MANET.node[8].eth.mac 	droppedPkIfaceDown:sum(packetBytes) 	0
attr interpolationmode  none
attr source  dropPkIfaceDown
attr title  "packets dropped/interface down, sum(packetBytes)"
scalar MANET.node[8].eth.mac 	rxPkFromHL:count 	0
attr interpolationmode  none
attr source  rxPkFromHL
attr title  "packet bytes from higher layer, count"
scalar MANET.node[8].eth.mac 	rxPkFromHL:sum(packetBytes) 	0
attr interpolationmode  none
attr source  rxPkFromHL
attr title  "packet bytes from higher layer, sum(packetBytes)"
scalar MANET.node[8].eth.mac 	rxPausePkUnits:count 	0
attr interpolationmode  none
attr title  "pause units received, count"
scalar MANET.node[8].eth.mac 	rxPausePkUnits:sum 	0
attr interpolationmode  none
attr title  "pause units received, sum"
scalar MANET.node[8].eth.mac 	txPausePkUnits:count 	0
attr interpolationmode  none
attr title  "pause units sent, count"
scalar MANET.node[8].eth.mac 	txPausePkUnits:sum 	0
attr interpolationmode  none
attr title  "pause units sent, sum"
scalar MANET.node[8].eth.mac 	passedUpPk:count 	0
attr interpolationmode  none
attr source  packetSentToUpper
attr title  "packets passed to higher layer, count"
scalar MANET.node[8].eth.mac 	passedUpPk:sum(packetBytes) 	0
attr interpolationmode  none
attr source  packetSentToUpper
attr title  "packets passed to higher layer, sum(packetBytes)"
scalar MANET.node[8].eth.mac 	rxPkOk:count 	0
attr interpolationmode  none
attr source  rxPkOk
attr title  "packets received OK, count"
scalar MANET.node[8].eth.mac 	rxPkOk:sum(packetBytes) 	0
attr interpolationmode  none
attr source  rxPkOk
attr title  "packets received OK, sum(packetBytes)"
scalar MANET.node[8].eth.mac 	txPk:count 	0
attr interpolationmode  none
attr source  txPk
attr title  "packets transmitted, count"
scalar MANET.node[8].eth.mac 	txPk:sum(packetBytes) 	0
attr interpolationmode  none
attr source  txPk
attr title  "packets transmitted, sum(packetBytes)"
scalar MANET.node[8].eth.encap 	pauseSent:count 	0
attr title  "pause sent, count"
scalar MANET.node[8].eth.encap 	pauseSent:sum 	0
attr title  "pause sent, sum"
scalar MANET.node[8].eth.encap 	decapPk:count 	0
attr interpolationmode  none
attr source  decapPk
attr title  "packets decapsulated, count"
scalar MANET.node[8].eth.encap 	decapPk:sum(packetBytes) 	0
attr interpolationmode  none
attr source  decapPk
attr title  "packets decapsulated, sum(packetBytes)"
scalar MANET.node[8].eth.encap 	encapPk:count 	0
attr interpolationmode  none
attr source  encapPk
attr title  "packets encapsulated, count"
scalar MANET.node[8].eth.encap 	encapPk:sum(packetBytes) 	0
attr interpolationmode  none
attr source  encapPk
attr title  "packets encapsulated, sum(packetBytes)"
scalar MANET.node[8].batteryStats 	nominal 	1187988120
attr unit  mW-s
scalar MANET.node[8].batteryStats 	total 	29810.479497433
attr unit  mW-s
scalar MANET.node[8].batteryStats 	lifetime 	-1
attr unit  s
scalar MANET.node[8].batteryStats 	"Mean power consumption" 	61.976048851211
attr unit  mW
scalar MANET.node[9].udp 	droppedPkBadChecksum:count 	0
attr interpolationmode  none
attr title  "packets dropped (checksum error), count"
scalar MANET.node[9].udp 	droppedPkWrongPort:count 	0
attr interpolationmode  none
attr title  "packets dropped (wrong port), count"
scalar MANET.node[9].udp 	passedUpPk:count 	0
attr interpolationmode  none
attr title  "packets passed up, count"
scalar MANET.node[9].udp 	rcvdPk:count 	0
attr interpolationmode  none
attr source  rcvdPk
attr title  "packets received, count"
scalar MANET.node[9].udp 	rcvdPk:sum(packetBytes) 	0
attr interpolationmode  none
attr source  rcvdPk
attr title  "packets received, sum(packetBytes)"
scalar MANET.node[9].udp 	sentPk:count 	0
attr interpolationmode  none
attr source  sentPk
attr title  "packets sent, count"
scalar MANET.node[9].udp 	sentPk:sum(packetBytes) 	0
attr interpolationmode  none
attr source  sentPk
attr title  "packets sent, sum(packetBytes)"
scalar MANET.node[9].networkLayer.arp 	failedResolution:count 	0
attr title  "ARP failed resolutions, count"
scalar MANET.node[9].networkLayer.arp 	initiatedResolution:count 	0
attr title  "ARP initiated resolutions, count"
scalar MANET.node[9].networkLayer.arp 	sentReplies:count 	0
attr title  "ARP replies sent, count"
scalar MANET.node[9].networkLayer.arp 	sentReq:count 	0
attr title  "ARP request sent, count"
scalar MANET.node[9].nic802154.mac 	nbTxFrames 	1440
scalar MANET.node[9].nic802154.mac 	nbRxFrames 	2090
scalar MANET.node[9].nic802154.mac 	nbDroppedFrames 	0
scalar MANET.node[9].nic802154.mac 	nbMissedAcks 	0
scalar MANET.node[9].nic802154.mac 	nbRecvdAcks 	0
scalar MANET.node[9].nic802154.mac 	nbTxAcks 	0
scalar MANET.node[9].nic802154.mac 	nbDuplicates 	0
scalar MANET.node[9].nic802154.mac 	meanBackoff 	0.0099027777777776
scalar MANET.node[9].nic802154.mac 	nbBackoffs 	1440
scalar MANET.node[9].nic802154.mac 	backoffDurations 	14.26
scalar MANET.node[9].nic802154.phy 	nbFramesWithInterference 	364
scalar MANET.node[9].nic802154.phy 	nbFramesWithoutInterference 	2676
scalar MANET.node[9].nic802154.phy 	nbFramesWithInterferencePartial 	394
scalar MANET.node[9].nic802154.phy 	nbFramesWithoutInterferencePartial 	0
scalar MANET.node[9].nic802154.phy 	nbFramesWithInterferenceDropped 	38
scalar MANET.node[9].nic802154.phy 	nbFramesWithoutInterferenceDropped 	0
scalar MANET.node[9].eth.mac 	"simulated time" 	481
scalar MANET.node[9].eth.mac 	full-duplex 	1
scalar MANET.node[9].eth.mac 	"frames/sec sent" 	0
scalar MANET.node[9].eth.mac 	"frames/sec rcvd" 	0
scalar MANET.node[9].eth.mac 	"bits/sec sent" 	0
scalar MANET.node[9].eth.mac 	"bits/sec rcvd" 	0
scalar MANET.node[9].eth.mac 	"rx channel idle (%)" 	100
scalar MANET.node[9].eth.mac 	"rx channel utilization (%)" 	0
scalar MANET.node[9].eth.mac 	droppedPkNotForUs:count 	0
attr interpolationmode  none
attr source  dropPkNotForUs
attr title  "packets dropped/not for us, count"
scalar MANET.node[9].eth.mac 	droppedPkNotForUs:sum(packetBytes) 	0
attr interpolationmode  none
attr source  dropPkNotForUs
attr title  "packets dropped/not for us, sum(packetBytes)"
scalar MANET.node[9].eth.mac 	droppedPkBitError:count 	0
attr interpolationmode  none
attr source  dropPkBitError
attr title  "packets dropped/bit error, count"
scalar MANET.node[9].eth.mac 	droppedPkBitError:sum(packetBytes) 	0
attr interpolationmode  none
attr source  dropPkBitError
attr title  "packets dropped/bit error, sum(packetBytes)"
scalar MANET.node[9].eth.mac 	droppedPkIfaceDown:count 	0
attr interpolationmode  none
attr source  dropPkIfaceDown
attr title  "packets dropped/interface down, count"
scalar MANET.node[9].eth.mac 	droppedPkIfaceDown:sum(packetBytes) 	0
attr interpolationmode  none
attr source  dropPkIfaceDown
attr title  "packets dropped/interface down, sum(packetBytes)"
scalar MANET.node[9].eth.mac 	rxPkFromHL:count 	0
attr interpolationmode  none
attr source  rxPkFromHL
attr title  "packet bytes from higher layer, count"
scalar MANET.node[9].eth.mac 	rxPkFromHL:sum(packetBytes) 	0
attr interpolationmode  none
attr source  rxPkFromHL
attr title  "packet bytes from higher layer, sum(packetBytes)"
scalar MANET.node[9].eth.mac 	rxPausePkUnits:count 	0
attr interpolationmode  none
attr title  "pause units received, count"
scalar MANET.node[9].eth.mac 	rxPausePkUnits:sum 	0
attr interpolationmode  none
attr title  "pause units received, sum"
scalar MANET.node[9].eth.mac 	txPausePkUnits:count 	0
attr interpolationmode  none
attr title  "pause units sent, count"
scalar MANET.node[9].eth.mac 	txPausePkUnits:sum 	0
attr interpolationmode  none
attr title  "pause units sent, sum"
scalar MANET.node[9].eth.mac 	passedUpPk:count 	0
attr interpolationmode  none
attr source  packetSentToUpper
attr title  "packets passed to higher layer, count"
scalar MANET.node[9].eth.mac 	passedUpPk:sum(packetBytes) 	0
attr interpolationmode  none
attr source  packetSentToUpper
attr title  "packets passed to higher layer, sum(packetBytes)"
scalar MANET.node[9].eth.mac 	rxPkOk:count 	0
attr interpolationmode  none
attr source  rxPkOk
attr title  "packets received OK, count"
scalar MANET.node[9].eth.mac 	rxPkOk:sum(packetBytes) 	0
attr interpolationmode  none
attr source  rxPkOk
attr title  "packets received OK, sum(packetBytes)"
scalar MANET.node[9].eth.mac 	txPk:count 	0
attr interpolationmode  none
attr source  txPk
attr title  "packets transmitted, count"
scalar MANET.node[9].eth.mac 	txPk:sum(packetBytes) 	0
attr interpolationmode  none
attr source  txPk
attr title  "packets transmitted, sum(packetBytes)"
scalar MANET.node[9].eth.encap 	pauseSent:count 	0
attr title  "pause sent, count"
scalar MANET.node[9].eth.encap 	pauseSent:sum 	0
attr title  "pause sent, sum"
scalar MANET.node[9].eth.encap 	decapPk:count 	0
attr interpolationmode  none
attr source  decapPk
attr title  "packets decapsulated, count"
scalar MANET.node[9].eth.encap 	decapPk:sum(packetBytes) 	0
attr interpolationmode  none
attr source  decapPk
attr title  "packets decapsulated, sum(packetBytes)"
scalar MANET.node[9].eth.encap 	encapPk:count 	0
attr interpolationmode  none
attr source  encapPk
attr title  "packets encapsulated, count"
scalar MANET.node[9].eth.encap 	encapPk:sum(packetBytes) 	0
attr interpolationmode  none
attr source  encapPk
attr title  "packets encapsulated, sum(packetBytes)"
scalar MANET.node[9].batteryStats 	nominal 	1187988120
attr unit  mW-s
scalar MANET.node[9].batteryStats 	total 	29810.796666384
attr unit  mW-s
scalar MANET.node[9].batteryStats 	lifetime 	-1
attr unit  s
scalar MANET.node[9].batteryStats 	"Mean power consumption" 	61.97670824612
attr unit  mW
scalar MANET.switch.relayUnit 	"processed frames" 	0
scalar MANET.switch.relayUnit 	"dropped frames" 	0
scalar MANET.switch.relayUnit 	droppedBytes:count 	0
attr title  "Dropped bytes, count"
scalar MANET.switch.relayUnit 	droppedBytes:sum 	0
attr title  "Dropped bytes, sum"
scalar MANET.switch.relayUnit 	processedBytes:count 	0
attr title  "Processed bytes, count"
scalar MANET.switch.relayUnit 	processedBytes:sum 	0
attr title  "Processed bytes, sum"
scalar MANET.switch.relayUnit 	usedBufferBytes:max 	-1.#IND
attr title  "Used buffer bytes, max"
scalar MANET.switch.relayUnit 	usedBufferBytes:timeavg 	-1.#IND
attr title  "Used buffer bytes, timeavg"
scalar MANET.switch.eth[0].mac 	"simulated time" 	481
scalar MANET.switch.eth[0].mac 	full-duplex 	1
scalar MANET.switch.eth[0].mac 	"frames/sec sent" 	0
scalar MANET.switch.eth[0].mac 	"frames/sec rcvd" 	0
scalar MANET.switch.eth[0].mac 	"bits/sec sent" 	0
scalar MANET.switch.eth[0].mac 	"bits/sec rcvd" 	0
scalar MANET.switch.eth[0].mac 	"rx channel idle (%)" 	100
scalar MANET.switch.eth[0].mac 	"rx channel utilization (%)" 	0
scalar MANET.switch.eth[0].mac 	droppedPkNotForUs:count 	0
attr interpolationmode  none
attr source  dropPkNotForUs
attr title  "packets dropped/not for us, count"
scalar MANET.switch.eth[0].mac 	droppedPkNotForUs:sum(packetBytes) 	0
attr interpolationmode  none
attr source  dropPkNotForUs
attr title  "packets dropped/not for us, sum(packetBytes)"
scalar MANET.switch.eth[0].mac 	droppedPkBitError:count 	0
attr interpolationmode  none
attr source  dropPkBitError
attr title  "packets dropped/bit error, count"
scalar MANET.switch.eth[0].mac 	droppedPkBitError:sum(packetBytes) 	0
attr interpolationmode  none
attr source  dropPkBitError
attr title  "packets dropped/bit error, sum(packetBytes)"
scalar MANET.switch.eth[0].mac 	droppedPkIfaceDown:count 	0
attr interpolationmode  none
attr source  dropPkIfaceDown
attr title  "packets dropped/interface down, count"
scalar MANET.switch.eth[0].mac 	droppedPkIfaceDown:sum(packetBytes) 	0
attr interpolationmode  none
attr source  dropPkIfaceDown
attr title  "packets dropped/interface down, sum(packetBytes)"
scalar MANET.switch.eth[0].mac 	rxPkFromHL:count 	0
attr interpolationmode  none
attr source  rxPkFromHL
attr title  "packet bytes from higher layer, count"
scalar MANET.switch.eth[0].mac 	rxPkFromHL:sum(packetBytes) 	0
attr interpolationmode  none
attr source  rxPkFromHL
attr title  "packet bytes from higher layer, sum(packetBytes)"
scalar MANET.switch.eth[0].mac 	rxPausePkUnits:count 	0
attr interpolationmode  none
attr title  "pause units received, count"
scalar MANET.switch.eth[0].mac 	rxPausePkUnits:sum 	0
attr interpolationmode  none
attr title  "pause units received, sum"
scalar MANET.switch.eth[0].mac 	txPausePkUnits:count 	0
attr interpolationmode  none
attr title  "pause units sent, count"
scalar MANET.switch.eth[0].mac 	txPausePkUnits:sum 	0
attr interpolationmode  none
attr title  "pause units sent, sum"
scalar MANET.switch.eth[0].mac 	passedUpPk:count 	0
attr interpolationmode  none
attr source  packetSentToUpper
attr title  "packets passed to higher layer, count"
scalar MANET.switch.eth[0].mac 	passedUpPk:sum(packetBytes) 	0
attr interpolationmode  none
attr source  packetSentToUpper
attr title  "packets passed to higher layer, sum(packetBytes)"
scalar MANET.switch.eth[0].mac 	rxPkOk:count 	0
attr interpolationmode  none
attr source  rxPkOk
attr title  "packets received OK, count"
scalar MANET.switch.eth[0].mac 	rxPkOk:sum(packetBytes) 	0
attr interpolationmode  none
attr source  rxPkOk
attr title  "packets received OK, sum(packetBytes)"
scalar MANET.switch.eth[0].mac 	txPk:count 	0
attr interpolationmode  none
attr source  txPk
attr title  "packets transmitted, count"
scalar MANET.switch.eth[0].mac 	txPk:sum(packetBytes) 	0
attr interpolationmode  none
attr source  txPk
attr title  "packets transmitted, sum(packetBytes)"
scalar MANET.switch.eth[1].mac 	"simulated time" 	481
scalar MANET.switch.eth[1].mac 	full-duplex 	1
scalar MANET.switch.eth[1].mac 	"frames/sec sent" 	0
scalar MANET.switch.eth[1].mac 	"frames/sec rcvd" 	0
scalar MANET.switch.eth[1].mac 	"bits/sec sent" 	0
scalar MANET.switch.eth[1].mac 	"bits/sec rcvd" 	0
scalar MANET.switch.eth[1].mac 	"rx channel idle (%)" 	100
scalar MANET.switch.eth[1].mac 	"rx channel utilization (%)" 	0
scalar MANET.switch.eth[1].mac 	droppedPkNotForUs:count 	0
attr interpolationmode  none
attr source  dropPkNotForUs
attr title  "packets dropped/not for us, count"
scalar MANET.switch.eth[1].mac 	droppedPkNotForUs:sum(packetBytes) 	0
attr interpolationmode  none
attr source  dropPkNotForUs
attr title  "packets dropped/not for us, sum(packetBytes)"
scalar MANET.switch.eth[1].mac 	droppedPkBitError:count 	0
attr interpolationmode  none
attr source  dropPkBitError
attr title  "packets dropped/bit error, count"
scalar MANET.switch.eth[1].mac 	droppedPkBitError:sum(packetBytes) 	0
attr interpolationmode  none
attr source  dropPkBitError
attr title  "packets dropped/bit error, sum(packetBytes)"
scalar MANET.switch.eth[1].mac 	droppedPkIfaceDown:count 	0
attr interpolationmode  none
attr source  dropPkIfaceDown
attr title  "packets dropped/interface down, count"
scalar MANET.switch.eth[1].mac 	droppedPkIfaceDown:sum(packetBytes) 	0
attr interpolationmode  none
attr source  dropPkIfaceDown
attr title  "packets dropped/interface down, sum(packetBytes)"
scalar MANET.switch.eth[1].mac 	rxPkFromHL:count 	0
attr interpolationmode  none
attr source  rxPkFromHL
attr title  "packet bytes from higher layer, count"
scalar MANET.switch.eth[1].mac 	rxPkFromHL:sum(packetBytes) 	0
attr interpolationmode  none
attr source  rxPkFromHL
attr title  "packet bytes from higher layer, sum(packetBytes)"
scalar MANET.switch.eth[1].mac 	rxPausePkUnits:count 	0
attr interpolationmode  none
attr title  "pause units received, count"
scalar MANET.switch.eth[1].mac 	rxPausePkUnits:sum 	0
attr interpolationmode  none
attr title  "pause units received, sum"
scalar MANET.switch.eth[1].mac 	txPausePkUnits:count 	0
attr interpolationmode  none
attr title  "pause units sent, count"
scalar MANET.switch.eth[1].mac 	txPausePkUnits:sum 	0
attr interpolationmode  none
attr title  "pause units sent, sum"
scalar MANET.switch.eth[1].mac 	passedUpPk:count 	0
attr interpolationmode  none
attr source  packetSentToUpper
attr title  "packets passed to higher layer, count"
scalar MANET.switch.eth[1].mac 	passedUpPk:sum(packetBytes) 	0
attr interpolationmode  none
attr source  packetSentToUpper
attr title  "packets passed to higher layer, sum(packetBytes)"
scalar MANET.switch.eth[1].mac 	rxPkOk:count 	0
attr interpolationmode  none
attr source  rxPkOk
attr title  "packets received OK, count"
scalar MANET.switch.eth[1].mac 	rxPkOk:sum(packetBytes) 	0
attr interpolationmode  none
attr source  rxPkOk
attr title  "packets received OK, sum(packetBytes)"
scalar MANET.switch.eth[1].mac 	txPk:count 	0
attr interpolationmode  none
attr source  txPk
attr title  "packets transmitted, count"
scalar MANET.switch.eth[1].mac 	txPk:sum(packetBytes) 	0
attr interpolationmode  none
attr source  txPk
attr title  "packets transmitted, sum(packetBytes)"
scalar MANET.switch.eth[2].mac 	"simulated time" 	481
scalar MANET.switch.eth[2].mac 	full-duplex 	1
scalar MANET.switch.eth[2].mac 	"frames/sec sent" 	0
scalar MANET.switch.eth[2].mac 	"frames/sec rcvd" 	0
scalar MANET.switch.eth[2].mac 	"bits/sec sent" 	0
scalar MANET.switch.eth[2].mac 	"bits/sec rcvd" 	0
scalar MANET.switch.eth[2].mac 	"rx channel idle (%)" 	100
scalar MANET.switch.eth[2].mac 	"rx channel utilization (%)" 	0
scalar MANET.switch.eth[2].mac 	droppedPkNotForUs:count 	0
attr interpolationmode  none
attr source  dropPkNotForUs
attr title  "packets dropped/not for us, count"
scalar MANET.switch.eth[2].mac 	droppedPkNotForUs:sum(packetBytes) 	0
attr interpolationmode  none
attr source  dropPkNotForUs
attr title  "packets dropped/not for us, sum(packetBytes)"
scalar MANET.switch.eth[2].mac 	droppedPkBitError:count 	0
attr interpolationmode  none
attr source  dropPkBitError
attr title  "packets dropped/bit error, count"
scalar MANET.switch.eth[2].mac 	droppedPkBitError:sum(packetBytes) 	0
attr interpolationmode  none
attr source  dropPkBitError
attr title  "packets dropped/bit error, sum(packetBytes)"
scalar MANET.switch.eth[2].mac 	droppedPkIfaceDown:count 	0
attr interpolationmode  none
attr source  dropPkIfaceDown
attr title  "packets dropped/interface down, count"
scalar MANET.switch.eth[2].mac 	droppedPkIfaceDown:sum(packetBytes) 	0
attr interpolationmode  none
attr source  dropPkIfaceDown
attr title  "packets dropped/interface down, sum(packetBytes)"
scalar MANET.switch.eth[2].mac 	rxPkFromHL:count 	0
attr interpolationmode  none
attr source  rxPkFromHL
attr title  "packet bytes from higher layer, count"
scalar MANET.switch.eth[2].mac 	rxPkFromHL:sum(packetBytes) 	0
attr interpolationmode  none
attr source  rxPkFromHL
attr title  "packet bytes from higher layer, sum(packetBytes)"
scalar MANET.switch.eth[2].mac 	rxPausePkUnits:count 	0
attr interpolationmode  none
attr title  "pause units received, count"
scalar MANET.switch.eth[2].mac 	rxPausePkUnits:sum 	0
attr interpolationmode  none
attr title  "pause units received, sum"
scalar MANET.switch.eth[2].mac 	txPausePkUnits:count 	0
attr interpolationmode  none
attr title  "pause units sent, count"
scalar MANET.switch.eth[2].mac 	txPausePkUnits:sum 	0
attr interpolationmode  none
attr title  "pause units sent, sum"
scalar MANET.switch.eth[2].mac 	passedUpPk:count 	0
attr interpolationmode  none
attr source  packetSentToUpper
attr title  "packets passed to higher layer, count"
scalar MANET.switch.eth[2].mac 	passedUpPk:sum(packetBytes) 	0
attr interpolationmode  none
attr source  packetSentToUpper
attr title  "packets passed to higher layer, sum(packetBytes)"
scalar MANET.switch.eth[2].mac 	rxPkOk:count 	0
attr interpolationmode  none
attr source  rxPkOk
attr title  "packets received OK, count"
scalar MANET.switch.eth[2].mac 	rxPkOk:sum(packetBytes) 	0
attr interpolationmode  none
attr source  rxPkOk
attr title  "packets received OK, sum(packetBytes)"
scalar MANET.switch.eth[2].mac 	txPk:count 	0
attr interpolationmode  none
attr source  txPk
attr title  "packets transmitted, count"
scalar MANET.switch.eth[2].mac 	txPk:sum(packetBytes) 	0
attr interpolationmode  none
attr source  txPk
attr title  "packets transmitted, sum(packetBytes)"
scalar MANET.switch.eth[3].mac 	"simulated time" 	481
scalar MANET.switch.eth[3].mac 	full-duplex 	1
scalar MANET.switch.eth[3].mac 	"frames/sec sent" 	0
scalar MANET.switch.eth[3].mac 	"frames/sec rcvd" 	0
scalar MANET.switch.eth[3].mac 	"bits/sec sent" 	0
scalar MANET.switch.eth[3].mac 	"bits/sec rcvd" 	0
scalar MANET.switch.eth[3].mac 	"rx channel idle (%)" 	100
scalar MANET.switch.eth[3].mac 	"rx channel utilization (%)" 	0
scalar MANET.switch.eth[3].mac 	droppedPkNotForUs:count 	0
attr interpolationmode  none
attr source  dropPkNotForUs
attr title  "packets dropped/not for us, count"
scalar MANET.switch.eth[3].mac 	droppedPkNotForUs:sum(packetBytes) 	0
attr interpolationmode  none
attr source  dropPkNotForUs
attr title  "packets dropped/not for us, sum(packetBytes)"
scalar MANET.switch.eth[3].mac 	droppedPkBitError:count 	0
attr interpolationmode  none
attr source  dropPkBitError
attr title  "packets dropped/bit error, count"
scalar MANET.switch.eth[3].mac 	droppedPkBitError:sum(packetBytes) 	0
attr interpolationmode  none
attr source  dropPkBitError
attr title  "packets dropped/bit error, sum(packetBytes)"
scalar MANET.switch.eth[3].mac 	droppedPkIfaceDown:count 	0
attr interpolationmode  none
attr source  dropPkIfaceDown
attr title  "packets dropped/interface down, count"
scalar MANET.switch.eth[3].mac 	droppedPkIfaceDown:sum(packetBytes) 	0
[...]
scalar MANET.switch.eth[4].mac 	full-duplex 	1
scalar MANET.switch.eth[4].mac 	"frames/sec sent" 	0
scalar MANET.switch.eth[4].mac 	"frames/sec rcvd" 	0
scalar MANET.switch.eth[4].mac 	"bits/sec sent" 	0
scalar MANET.switch.eth[4].mac 	"bits/sec rcvd" 	0
scalar MANET.switch.eth[4].mac 	"rx channel idle (%)" 	100
scalar MANET.switch.eth[4].mac 	"rx channel utilization (%)" 	0
scalar MANET.switch.eth[4].mac 	droppedPkNotForUs:count 	0
attr interpolationmode  none
attr source  dropPkNotForUs
attr title  "packets dropped/not for us, count"
scalar MANET.switch.eth[4].mac 	droppedPkNotForUs:sum(packetBytes) 	0
attr interpolationmode  none
attr source  dropPkNotForUs
attr title  "packets dropped/not for us, sum(packetBytes)"
scalar MANET.switch.eth[4].mac 	droppedPkBitError:count 	0
attr interpolationmode  none
attr source  dropPkBitError
attr title  "packets dropped/bit error, count"
scalar MANET.switch.eth[4].mac 	droppedPkBitError:sum(packetBytes) 	0
attr interpolationmode  none
attr source  dropPkBitError
attr title  "packets dropped/bit error, sum(packetBytes)"
scalar MANET.switch.eth[4].mac 	droppedPkIfaceDown:count 	0
attr interpolationmode  none
attr source  dropPkIfaceDown
attr title  "packets dropped/interface down, count"
scalar MANET.switch.eth[4].mac 	droppedPkIfaceDown:sum(packetBytes) 	0
attr interpolationmode  none
attr source  dropPkIfaceDown
attr title  "packets dropped/interface down, sum(packetBytes)"
scalar MANET.switch.eth[4].mac 	rxPkFromHL:count 	0
attr interpolationmode  none
attr source  rxPkFromHL
attr title  "packet bytes from higher layer, count"
scalar MANET.switch.eth[4].mac 	rxPkFromHL:sum(packetBytes) 	0
attr interpolationmode  none
attr source  rxPkFromHL
attr title  "packet bytes from higher layer, sum(packetBytes)"
scalar MANET.switch.eth[4].mac 	rxPausePkUnits:count 	0
attr interpolationmode  none
attr title  "pause units received, count"
scalar MANET.switch.eth[4].mac 	rxPausePkUnits:sum 	0
attr interpolationmode  none
attr title  "pause units received, sum"
scalar MANET.switch.eth[4].mac 	txPausePkUnits:count 	0
attr interpolationmode  none
attr title  "pause units sent, count"
scalar MANET.switch.eth[4].mac 	txPausePkUnits:sum 	0
attr interpolationmode  none
attr title  "pause units sent, sum"
scalar MANET.switch.eth[4].mac 	passedUpPk:count 	0
attr interpolationmode  none
attr source  packetSentToUpper
attr title  "packets passed to higher layer, count"
scalar MANET.switch.eth[4].mac 	passedUpPk:sum(packetBytes) 	0
attr interpolationmode  none
attr source  packetSentToUpper
attr title  "packets passed to higher layer, sum(packetBytes)"
scalar MANET.switch.eth[4].mac 	rxPkOk:count 	0
attr interpolationmode  none
attr source  rxPkOk
attr title  "packets received OK, count"
scalar MANET.switch.eth[4].mac 	rxPkOk:sum(packetBytes) 	0
attr interpolationmode  none
attr source  rxPkOk
attr title  "packets received OK, sum(packetBytes)"
scalar MANET.switch.eth[4].mac 	txPk:count 	0
attr interpolationmode  none
attr source  txPk
attr title  "packets transmitted, count"
scalar MANET.switch.eth[4].mac 	txPk:sum(packetBytes) 	0
attr interpolationmode  none
attr source  txPk
attr title  "packets transmitted, sum(packetBytes)"
scalar MANET.switch.eth[5].mac 	"simulated time" 	481
scalar MANET.switch.eth[5].mac 	full-duplex 	1
scalar MANET.switch.eth[5].mac 	"frames/sec sent" 	0
scalar MANET.switch.eth[5].mac 	"frames/sec rcvd" 	0
scalar MANET.switch.eth[5].mac 	"bits/sec sent" 	0
scalar MANET.switch.eth[5].mac 	"bits/sec rcvd" 	0
scalar MANET.switch.eth[5].mac 	"rx channel idle (%)" 	100
scalar MANET.switch.eth[5].mac 	"rx channel utilization (%)" 	0
scalar MANET.switch.eth[5].mac 	droppedPkNotForUs:count 	0
attr interpolationmode  none
attr source  dropPkNotForUs
attr title  "packets dropped/not for us, count"
scalar MANET.switch.eth[5].mac 	droppedPkNotForUs:sum(packetBytes) 	0
attr interpolationmode  none
attr source  dropPkNotForUs
attr title  "packets dropped/not for us, sum(packetBytes)"
scalar MANET.switch.eth[5].mac 	droppedPkBitError:count 	0
attr interpolationmode  none
attr source  dropPkBitError
attr title  "packets dropped/bit error, count"
scalar MANET.switch.eth[5].mac 	droppedPkBitError:sum(packetBytes) 	0
attr interpolationmode  none
attr source  dropPkBitError
attr title  "packets dropped/bit error, sum(packetBytes)"
scalar MANET.switch.eth[5].mac 	droppedPkIfaceDown:count 	0
attr interpolationmode  none
attr source  dropPkIfaceDown
attr title  "packets dropped/interface down, count"
scalar MANET.switch.eth[5].mac 	droppedPkIfaceDown:sum(packetBytes) 	0
attr interpolationmode  none
attr source  dropPkIfaceDown
attr title  "packets dropped/interface down, sum(packetBytes)"
scalar MANET.switch.eth[5].mac 	rxPkFromHL:count 	0
attr interpolationmode  none
attr source  rxPkFromHL
attr title  "packet bytes from higher layer, count"
scalar MANET.switch.eth[5].mac 	rxPkFromHL:sum(packetBytes) 	0
attr interpolationmode  none
attr source  rxPkFromHL
attr title  "packet bytes from higher layer, sum(packetBytes)"
scalar MANET.switch.eth[5].mac 	rxPausePkUnits:count 	0
attr interpolationmode  none
attr title  "pause units received, count"
scalar MANET.switch.eth[5].mac 	rxPausePkUnits:sum 	0
attr interpolationmode  none
attr title  "pause units received, sum"
scalar MANET.switch.eth[5].mac 	txPausePkUnits:count 	0
attr interpolationmode  none
attr title  "pause units sent, count"
scalar MANET.switch.eth[5].mac 	txPausePkUnits:sum 	0
attr interpolationmode  none
attr title  "pause units sent, sum"
scalar MANET.switch.eth[5].mac 	passedUpPk:count 	0
attr interpolationmode  none
attr source  packetSentToUpper
attr title  "packets passed to higher layer, count"
scalar MANET.switch.eth[5].mac 	passedUpPk:sum(packetBytes) 	0
attr interpolationmode  none
attr source  packetSentToUpper
attr title  "packets passed to higher layer, sum(packetBytes)"
scalar MANET.switch.eth[5].mac 	rxPkOk:count 	0
attr interpolationmode  none
attr source  rxPkOk
attr title  "packets received OK, count"
scalar MANET.switch.eth[5].mac 	rxPkOk:sum(packetBytes) 	0
attr interpolationmode  none
attr source  rxPkOk
attr title  "packets received OK, sum(packetBytes)"
scalar MANET.switch.eth[5].mac 	txPk:count 	0
attr interpolationmode  none
attr source  txPk
attr title  "packets transmitted, count"
scalar MANET.switch.eth[5].mac 	txPk:sum(packetBytes) 	0
attr interpolationmode  none
attr source  txPk
attr title  "packets transmitted, sum(packetBytes)"
scalar MANET.switch.eth[6].mac 	"simulated time" 	481
scalar MANET.switch.eth[6].mac 	full-duplex 	1
scalar MANET.switch.eth[6].mac 	"frames/sec sent" 	0
scalar MANET.switch.eth[6].mac 	"frames/sec rcvd" 	0
scalar MANET.switch.eth[6].mac 	"bits/sec sent" 	0
scalar MANET.switch.eth[6].mac 	"bits/sec rcvd" 	0
scalar MANET.switch.eth[6].mac 	"rx channel idle (%)" 	100
scalar MANET.switch.eth[6].mac 	"rx channel utilization (%)" 	0
scalar MANET.switch.eth[6].mac 	droppedPkNotForUs:count 	0
attr interpolationmode  none
attr source  dropPkNotForUs
attr title  "packets dropped/not for us, count"
scalar MANET.switch.eth[6].mac 	droppedPkNotForUs:sum(packetBytes) 	0
attr interpolationmode  none
attr source  dropPkNotForUs
attr title  "packets dropped/not for us, sum(packetBytes)"
scalar MANET.switch.eth[6].mac 	droppedPkBitError:count 	0
attr interpolationmode  none
attr source  dropPkBitError
attr title  "packets dropped/bit error, count"
scalar MANET.switch.eth[6].mac 	droppedPkBitError:sum(packetBytes) 	0
attr interpolationmode  none
attr source  dropPkBitError
attr title  "packets dropped/bit error, sum(packetBytes)"
scalar MANET.switch.eth[6].mac 	droppedPkIfaceDown:count 	0
attr interpolationmode  none
attr source  dropPkIfaceDown
attr title  "packets dropped/interface down, count"
scalar MANET.switch.eth[6].mac 	droppedPkIfaceDown:sum(packetBytes) 	0
attr interpolationmode  none
attr source  dropPkIfaceDown
attr title  "packets dropped/interface down, sum(packetBytes)"
scalar MANET.switch.eth[6].mac 	rxPkFromHL:count 	0
attr interpolationmode  none
attr source  rxPkFromHL
attr title  "packet bytes from higher layer, count"
scalar MANET.switch.eth[6].mac 	rxPkFromHL:sum(packetBytes) 	0
attr interpolationmode  none
attr source  rxPkFromHL
attr title  "packet bytes from higher layer, sum(packetBytes)"
scalar MANET.switch.eth[6].mac 	rxPausePkUnits:count 	0
attr interpolationmode  none
attr title  "pause units received, count"
scalar MANET.switch.eth[6].mac 	rxPausePkUnits:sum 	0
attr interpolationmode  none
attr title  "pause units received, sum"
scalar MANET.switch.eth[6].mac 	txPausePkUnits:count 	0
attr interpolationmode  none
attr title  "pause units sent, count"
scalar MANET.switch.eth[6].mac 	txPausePkUnits:sum 	0
attr interpolationmode  none
attr title  "pause units sent, sum"
scalar MANET.switch.eth[6].mac 	passedUpPk:count 	0
attr interpolationmode  none
attr source  packetSentToUpper
attr title  "packets passed to higher layer, count"
scalar MANET.switch.eth[6].mac 	passedUpPk:sum(packetBytes) 	0
attr interpolationmode  none
attr source  packetSentToUpper
attr title  "packets passed to higher layer, sum(packetBytes)"
scalar MANET.switch.eth[6].mac 	rxPkOk:count 	0
attr interpolationmode  none
attr source  rxPkOk
attr title  "packets received OK, count"
scalar MANET.switch.eth[6].mac 	rxPkOk:sum(packetBytes) 	0
attr interpolationmode  none
attr source  rxPkOk
attr title  "packets received OK, sum(packetBytes)"
scalar MANET.switch.eth[6].mac 	txPk:count 	0
attr interpolationmode  none
attr source  txPk
attr title  "packets transmitted, count"
scalar MANET.switch.eth[6].mac 	txPk:sum(packetBytes) 	0
attr interpolationmode  none
attr source  txPk
attr title  "packets transmitted, sum(packetBytes)"
scalar MANET.switch.eth[7].mac 	"simulated time" 	481
scalar MANET.switch.eth[7].mac 	full-duplex 	1
scalar MANET.switch.eth[7].mac 	"frames/sec sent" 	0
scalar MANET.switch.eth[7].mac 	"frames/sec rcvd" 	0
scalar MANET.switch.eth[7].mac 	"bits/sec sent" 	0
scalar MANET.switch.eth[7].mac 	"bits/sec rcvd" 	0
scalar MANET.switch.eth[7].mac 	"rx channel idle (%)" 	100
scalar MANET.switch.eth[7].mac 	"rx channel utilization (%)" 	0
scalar MANET.switch.eth[7].mac 	droppedPkNotForUs:count 	0
attr interpolationmode  none
attr source  dropPkNotForUs
attr title  "packets dropped/not for us, count"
scalar MANET.switch.eth[7].mac 	droppedPkNotForUs:sum(packetBytes) 	0
attr interpolationmode  none
attr source  dropPkNotForUs
attr title  "packets dropped/not for us, sum(packetBytes)"
scalar MANET.switch.eth[7].mac 	droppedPkBitError:count 	0
attr interpolationmode  none
attr source  dropPkBitError
attr title  "packets dropped/bit error, count"
scalar MANET.switch.eth[7].mac 	droppedPkBitError:sum(packetBytes) 	0
attr interpolationmode  none
attr source  dropPkBitError
attr title  "packets dropped/bit error, sum(packetBytes)"
scalar MANET.switch.eth[7].mac 	droppedPkIfaceDown:count 	0
attr interpolationmode  none
attr source  dropPkIfaceDown
attr title  "packets dropped/interface down, count"
scalar MANET.switch.eth[7].mac 	droppedPkIfaceDown:sum(packetBytes) 	0
attr interpolationmode  none
attr source  dropPkIfaceDown
attr title  "packets dropped/interface down, sum(packetBytes)"
scalar MANET.switch.eth[7].mac 	rxPkFromHL:count 	0
attr interpolationmode  none
attr source  rxPkFromHL
attr title  "packet bytes from higher layer, count"
scalar MANET.switch.eth[7].mac 	rxPkFromHL:sum(packetBytes) 	0
attr interpolationmode  none
attr source  rxPkFromHL
attr title  "packet bytes from higher layer, sum(packetBytes)"
scalar MANET.switch.eth[7].mac 	rxPausePkUnits:count 	0
attr interpolationmode  none
attr title  "pause units received, count"
scalar MANET.switch.eth[7].mac 	rxPausePkUnits:sum 	0
attr interpolationmode  none
attr title  "pause units received, sum"
scalar MANET.switch.eth[7].mac 	txPausePkUnits:count 	0
attr interpolationmode  none
attr title  "pause units sent, count"
scalar MANET.switch.eth[7].mac 	txPausePkUnits:sum 	0
attr interpolationmode  none
attr title  "pause units sent, sum"
scalar MANET.switch.eth[7].mac 	passedUpPk:count 	0
attr interpolationmode  none
attr source  packetSentToUpper
attr title  "packets passed to higher layer, count"
scalar MANET.switch.eth[7].mac 	passedUpPk:sum(packetBytes) 	0
attr interpolationmode  none
attr source  packetSentToUpper
attr title  "packets passed to higher layer, sum(packetBytes)"
scalar MANET.switch.eth[7].mac 	rxPkOk:count 	0
attr interpolationmode  none
attr source  rxPkOk
attr title  "packets received OK, count"
scalar MANET.switch.eth[7].mac 	rxPkOk:sum(packetBytes) 	0
attr interpolationmode  none
attr source  rxPkOk
attr title  "packets received OK, sum(packetBytes)"
scalar MANET.switch.eth[7].mac 	txPk:count 	0
attr interpolationmode  none
attr source  txPk
attr title  "packets transmitted, count"
scalar MANET.switch.eth[7].mac 	txPk:sum(packetBytes) 	0
attr interpolationmode  none
attr source  txPk
attr title  "packets transmitted, sum(packetBytes)"
scalar MANET.switch.eth[8].mac 	"simulated time" 	481
scalar MANET.switch.eth[8].mac 	full-duplex 	1
scalar MANET.switch.eth[8].mac 	"frames/sec sent" 	0
scalar MANET.switch.eth[8].mac 	"frames/sec rcvd" 	0
scalar MANET.switch.eth[8].mac 	"bits/sec sent" 	0
scalar MANET.switch.eth[8].mac 	"bits/sec rcvd" 	0
scalar MANET.switch.eth[8].mac 	"rx channel idle (%)" 	100
scalar MANET.switch.eth[8].mac 	"rx channel utilization (%)" 	0
scalar MANET.switch.eth[8].mac 	droppedPkNotForUs:count 	0
attr interpolationmode  none
attr source  dropPkNotForUs
attr title  "packets dropped/not for us, count"
scalar MANET.switch.eth[8].mac 	droppedPkNotForUs:sum(packetBytes) 	0
attr interpolationmode  none
attr source  dropPkNotForUs
attr title  "packets dropped/not for us, sum(packetBytes)"
scalar MANET.switch.eth[8].mac 	droppedPkBitError:count 	0
attr interpolationmode  none
attr source  dropPkBitError
attr title  "packets dropped/bit error, count"
scalar MANET.switch.eth[8].mac 	droppedPkBitError:sum(packetBytes) 	0
attr interpolationmode  none
attr source  dropPkBitError
attr title  "packets dropped/bit error, sum(packetBytes)"
scalar MANET.switch.eth[8].mac 	droppedPkIfaceDown:count 	0
attr interpolationmode  none
attr source  dropPkIfaceDown
attr title  "packets dropped/interface down, count"
scalar MANET.switch.eth[8].mac 	droppedPkIfaceDown:sum(packetBytes) 	0
attr interpolationmode  none
attr source  dropPkIfaceDown
attr title  "packets dropped/interface down, sum(packetBytes)"
scalar MANET.switch.eth[8].mac 	rxPkFromHL:count 	0
attr interpolationmode  none
attr source  rxPkFromHL
attr title  "packet bytes from higher layer, count"
scalar MANET.switch.eth[8].mac 	rxPkFromHL:sum(packetBytes) 	0
attr interpolationmode  none
attr source  rxPkFromHL
attr title  "packet bytes from higher layer, sum(packetBytes)"
scalar MANET.switch.eth[8].mac 	rxPausePkUnits:count 	0
attr interpolationmode  none
attr title  "pause units received, count"
scalar MANET.switch.eth[8].mac 	rxPausePkUnits:sum 	0
attr interpolationmode  none
attr title  "pause units received, sum"
scalar MANET.switch.eth[8].mac 	txPausePkUnits:count 	0
attr interpolationmode  none
attr title  "pause units sent, count"
scalar MANET.switch.eth[8].mac 	txPausePkUnits:sum 	0
attr interpolationmode  none
attr title  "pause units sent, sum"
scalar MANET.switch.eth[8].mac 	passedUpPk:count 	0
attr interpolationmode  none
attr source  packetSentToUpper
attr title  "packets passed to higher layer, count"
scalar MANET.switch.eth[8].mac 	passedUpPk:sum(packetBytes) 	0
attr interpolationmode  none
attr source  packetSentToUpper
attr title  "packets passed to higher layer, sum(packetBytes)"
scalar MANET.switch.eth[8].mac 	rxPkOk:count 	0
attr interpolationmode  none
attr source  rxPkOk
attr title  "packets received OK, count"
scalar MANET.switch.eth[8].mac 	rxPkOk:sum(packetBytes) 	0
attr interpolationmode  none
attr source  rxPkOk
attr title  "packets received OK, sum(packetBytes)"
scalar MANET.switch.eth[8].mac 	txPk:count 	0
attr interpolationmode  none
attr source  txPk
attr title  "packets transmitted, count"
scalar MANET.switch.eth[8].mac 	txPk:sum(packetBytes) 	0
attr interpolationmode  none
attr source  txPk
attr title  "packets transmitted, sum(packetBytes)"
scalar MANET.switch.eth[9].mac 	"simulated time" 	481
scalar MANET.switch.eth[9].mac 	full-duplex 	1
scalar MANET.switch.eth[9].mac 	"frames/sec sent" 	0
scalar MANET.switch.eth[9].mac 	"frames/sec rcvd" 	0
scalar MANET.switch.eth[9].mac 	"bits/sec sent" 	0
scalar MANET.switch.eth[9].mac 	"bits/sec rcvd" 	0
scalar MANET.switch.eth[9].mac 	"rx channel idle (%)" 	100
scalar MANET.switch.eth[9].mac 	"rx channel utilization (%)" 	0
scalar MANET.switch.eth[9].mac 	droppedPkNotForUs:count 	0
attr interpolationmode  none
attr source  dropPkNotForUs
attr title  "packets dropped/not for us, count"
scalar MANET.switch.eth[9].mac 	droppedPkNotForUs:sum(packetBytes) 	0
attr interpolationmode  none
attr source  dropPkNotForUs
attr title  "packets dropped/not for us, sum(packetBytes)"
scalar MANET.switch.eth[9].mac 	droppedPkBitError:count 	0
attr interpolationmode  none
attr source  dropPkBitError
attr title  "packets dropped/bit error, count"
scalar MANET.switch.eth[9].mac 	droppedPkBitError:sum(packetBytes) 	0
attr interpolationmode  none
attr source  dropPkBitError
attr title  "packets dropped/bit error, sum(packetBytes)"
scalar MANET.switch.eth[9].mac 	droppedPkIfaceDown:count 	0
attr interpolationmode  none
attr source  dropPkIfaceDown
attr title  "packets dropped/interface down, count"
scalar MANET.switch.eth[9].mac 	droppedPkIfaceDown:sum(packetBytes) 	0
attr interpolationmode  none
attr source  dropPkIfaceDown
attr title  "packets dropped/interface down, sum(packetBytes)"
scalar MANET.switch.eth[9].mac 	rxPkFromHL:count 	0
attr interpolationmode  none
attr source  rxPkFromHL
attr title  "packet bytes from higher layer, count"
scalar MANET.switch.eth[9].mac 	rxPkFromHL:sum(packetBytes) 	0
attr interpolationmode  none
attr source  rxPkFromHL
attr title  "packet bytes from higher layer, sum(packetBytes)"
scalar MANET.switch.eth[9].mac 	rxPausePkUnits:count 	0
attr interpolationmode  none
attr title  "pause units received, count"
scalar MANET.switch.eth[9].mac 	rxPausePkUnits:sum 	0
attr interpolationmode  none
attr title  "pause units received, sum"
scalar MANET.switch.eth[9].mac 	txPausePkUnits:count 	0
attr interpolationmode  none
attr title  "pause units sent, count"
scalar MANET.switch.eth[9].mac 	txPausePkUnits:sum 	0
attr interpolationmode  none
attr title  "pause units sent, sum"
scalar MANET.switch.eth[9].mac 	passedUpPk:count 	0
attr interpolationmode  none
attr source  packetSentToUpper
attr title  "packets passed to higher layer, count"
scalar MANET.switch.eth[9].mac 	passedUpPk:sum(packetBytes) 	0
attr interpolationmode  none
attr source  packetSentToUpper
attr title  "packets passed to higher layer, sum(packetBytes)"
scalar MANET.switch.eth[9].mac 	rxPkOk:count 	0
attr interpolationmode  none
attr source  rxPkOk
attr title  "packets received OK, count"
scalar MANET.switch.eth[9].mac 	rxPkOk:sum(packetBytes) 	0
attr interpolationmode  none
attr source  rxPkOk
attr title  "packets received OK, sum(packetBytes)"
scalar MANET.switch.eth[9].mac 	txPk:count 	0
attr interpolationmode  none
attr source  txPk
attr title  "packets transmitted, count"
scalar MANET.switch.eth[9].mac 	txPk:sum(packetBytes) 	0
attr interpolationmode  none
attr source  txPk
attr title  "packets transmitted, sum(packetBytes)"
